smi_total_5_1_replica-1.pdbqt
 OpenBabel02022121403D

 40 41  0  0  1  0  0  0  0  0999 V2000
    4.8650   56.5810   11.4330 C   0  0  1  0  0  0  0  0  0  0  0  0
    3.5010   56.0490   10.9160 C   0  0  2  0  0  0  0  0  0  0  0  0
    2.3300   56.8240   11.5660 C   0  0  1  0  0  0  0  0  0  0  0  0
    0.9750   56.3060   11.0620 C   0  0  0  0  0  0  0  0  0  0  0  0
    0.8190   54.7930   11.1980 C   0  0  0  0  0  0  0  0  0  0  0  0
    1.9780   54.0520   10.5470 C   0  0  0  0  0  0  0  0  0  0  0  0
    2.4130   56.8070   13.1020 C   0  0  0  0  0  0  0  0  0  0  0  0
    3.7560   57.3370   13.5910 C   0  0  0  0  0  0  0  0  0  0  0  0
    3.3280   54.5270   11.0800 C   0  0  0  0  0  0  0  0  0  0  0  0
    4.9280   56.5810   12.9720 C   0  0  0  0  0  0  0  0  0  0  0  0
    6.0990   55.8460   10.8600 C   0  0  0  0  0  0  0  0  0  0  0  0
    7.4030   56.6380   11.0050 C   0  0  0  0  0  0  0  0  0  0  0  0
    8.5480   55.9840   10.2320 C   0  0  0  0  0  0  0  0  0  0  0  0
    8.0240   54.9570    9.2390 C   0  0  0  0  0  0  0  0  0  0  0  0
    4.9137   57.5862   11.0696 H   0  0  0  0  0  0  0  0  0  0  0  0
    3.4894   56.2264    9.8609 H   0  0  0  0  0  0  0  0  0  0  0  0
    2.4163   57.8470   11.2646 H   0  0  0  0  0  0  0  0  0  0  0  0
    0.1990   56.7796   11.6263 H   0  0  0  0  0  0  0  0  0  0  0  0
    0.9143   56.5387   10.0194 H   0  0  0  0  0  0  0  0  0  0  0  0
    0.7836   54.5391   12.2368 H   0  0  0  0  0  0  0  0  0  0  0  0
   -0.0847   54.5029   10.7040 H   0  0  0  0  0  0  0  0  0  0  0  0
    1.8758   53.0058   10.7468 H   0  0  0  0  0  0  0  0  0  0  0  0
    1.9487   54.2482    9.4956 H   0  0  0  0  0  0  0  0  0  0  0  0
    2.2889   55.8016   13.4465 H   0  0  0  0  0  0  0  0  0  0  0  0
    1.6403   57.4382   13.4886 H   0  0  0  0  0  0  0  0  0  0  0  0
    3.8352   58.3715   13.3293 H   0  0  0  0  0  0  0  0  0  0  0  0
    3.7985   57.2019   14.6516 H   0  0  0  0  0  0  0  0  0  0  0  0
    4.1078   54.0293   10.5423 H   0  0  0  0  0  0  0  0  0  0  0  0
    3.3748   54.2962   12.1238 H   0  0  0  0  0  0  0  0  0  0  0  0
    5.8409   57.0460   13.2806 H   0  0  0  0  0  0  0  0  0  0  0  0
    4.8797   55.5654   13.3052 H   0  0  0  0  0  0  0  0  0  0  0  0
    6.2088   54.9151   11.3760 H   0  0  0  0  0  0  0  0  0  0  0  0
    5.9271   55.7110    9.8126 H   0  0  0  0  0  0  0  0  0  0  0  0
    7.2514   57.6282   10.6290 H   0  0  0  0  0  0  0  0  0  0  0  0
    7.6681   56.6589   12.0414 H   0  0  0  0  0  0  0  0  0  0  0  0
    9.0873   56.7401    9.7006 H   0  0  0  0  0  0  0  0  0  0  0  0
    9.1875   55.4854   10.9301 H   0  0  0  0  0  0  0  0  0  0  0  0
    7.3816   55.4396    8.5324 H   0  0  0  0  0  0  0  0  0  0  0  0
    7.4752   54.2023    9.7626 H   0  0  0  0  0  0  0  0  0  0  0  0
    8.8467   54.5069    8.7238 H   0  0  0  0  0  0  0  0  0  0  0  0
  1 10  1  0  0  0  0
  1 15  1  6  0  0  0
  2  9  1  0  0  0  0
  2  1  1  0  0  0  0
  2  3  1  0  0  0  0
  2 16  1  6  0  0  0
  3  7  1  0  0  0  0
  3 17  1  6  0  0  0
  4  5  1  0  0  0  0
  4  3  1  0  0  0  0
  4 18  1  0  0  0  0
  4 19  1  0  0  0  0
  5 20  1  0  0  0  0
  5 21  1  0  0  0  0
  6  9  1  0  0  0  0
  6  5  1  0  0  0  0
  6 22  1  0  0  0  0
  6 23  1  0  0  0  0
  7  8  1  0  0  0  0
  7 24  1  0  0  0  0
  7 25  1  0  0  0  0
  8 26  1  0  0  0  0
  8 27  1  0  0  0  0
  9 28  1  0  0  0  0
  9 29  1  0  0  0  0
 10  8  1  0  0  0  0
 10 30  1  0  0  0  0
 10 31  1  0  0  0  0
 11 12  1  0  0  0  0
 11  1  1  0  0  0  0
 11 32  1  0  0  0  0
 11 33  1  0  0  0  0
 12 34  1  0  0  0  0
 12 35  1  0  0  0  0
 13 12  1  0  0  0  0
 13 36  1  0  0  0  0
 13 37  1  0  0  0  0
 14 13  1  0  0  0  0
 14 38  1  0  0  0  0
 14 39  1  0  0  0  0
 14 40  1  0  0  0  0
M  END
$$$$
