smi_total_3_1_replica-1.pdbqt
 OpenBabel02022121403D

 36 35  0  0  0  0  0  0  0  0999 V2000
    2.7550   59.4460   11.2360 C   0  0  0  0  0  0  0  0  0  0  0  0
    4.0450   59.4000   12.0880 C   0  0  0  0  0  0  0  0  0  0  0  0
    4.1000   58.3770   13.2370 C   0  0  0  0  0  0  0  0  0  0  0  0
    4.9860   57.1640   12.9600 C   0  0  0  0  0  0  0  0  0  0  0  0
    5.7970   57.2750   11.6790 C   0  0  0  0  0  0  0  0  0  0  0  0
    5.8520   55.9130   10.9740 C   0  0  0  0  0  0  0  0  0  0  0  0
    5.5830   54.7990   11.9700 C   0  0  0  0  0  0  0  0  0  0  0  0
    1.7660   58.2980   11.4570 C   0  0  0  0  0  0  0  0  0  0  0  0
    1.9590   57.0860   10.5400 C   0  0  0  0  0  0  0  0  0  0  0  0
    1.9060   55.7420   11.3080 C   0  0  0  0  0  0  0  0  0  0  0  0
    2.3400   54.5690   10.4220 C   0  0  0  0  0  0  0  0  0  0  0  0
    1.3530   53.4160   10.3200 C   0  0  0  0  0  0  0  0  0  0  0  0
    2.5720   60.2040   10.5600 H   0  0  0  0  0  0  0  0  0  0  0  0
    4.8383   60.0308   11.8937 H   0  0  0  0  0  0  0  0  0  0  0  0
    3.1054   58.0293   13.4234 H   0  0  0  0  0  0  0  0  0  0  0  0
    4.5291   58.8833   14.0763 H   0  0  0  0  0  0  0  0  0  0  0  0
    5.6642   57.0477   13.7794 H   0  0  0  0  0  0  0  0  0  0  0  0
    4.3348   56.3229   12.8441 H   0  0  0  0  0  0  0  0  0  0  0  0
    5.3385   57.9918   11.0302 H   0  0  0  0  0  0  0  0  0  0  0  0
    6.7920   57.5873   11.9187 H   0  0  0  0  0  0  0  0  0  0  0  0
    6.8219   55.7762   10.5434 H   0  0  0  0  0  0  0  0  0  0  0  0
    5.1062   55.8850   10.2073 H   0  0  0  0  0  0  0  0  0  0  0  0
    6.3259   54.8217   12.7397 H   0  0  0  0  0  0  0  0  0  0  0  0
    5.6187   53.8550   11.4675 H   0  0  0  0  0  0  0  0  0  0  0  0
    4.6148   54.9353   12.4046 H   0  0  0  0  0  0  0  0  0  0  0  0
    1.8646   57.9662   12.4695 H   0  0  0  0  0  0  0  0  0  0  0  0
    0.7976   58.6919   11.2291 H   0  0  0  0  0  0  0  0  0  0  0  0
    1.1851   57.0889    9.8011 H   0  0  0  0  0  0  0  0  0  0  0  0
    2.9294   57.1671   10.0964 H   0  0  0  0  0  0  0  0  0  0  0  0
    2.5594   55.7990   12.1534 H   0  0  0  0  0  0  0  0  0  0  0  0
    0.8957   55.5724   11.6170 H   0  0  0  0  0  0  0  0  0  0  0  0
    2.5063   54.9471    9.4349 H   0  0  0  0  0  0  0  0  0  0  0  0
    3.2147   54.1627   10.8855 H   0  0  0  0  0  0  0  0  0  0  0  0
    0.4495   53.7595    9.8611 H   0  0  0  0  0  0  0  0  0  0  0  0
    1.1365   53.0441   11.2997 H   0  0  0  0  0  0  0  0  0  0  0  0
    1.7788   52.6334    9.7275 H   0  0  0  0  0  0  0  0  0  0  0  0
  1  8  1  0  0  0  0
  1  2  2  0  0  0  0
  1 13  1  0  0  0  0
  2  3  1  0  0  0  0
  2 14  1  0  0  0  0
  3 15  1  0  0  0  0
  3 16  1  0  0  0  0
  4  3  1  0  0  0  0
  4 17  1  0  0  0  0
  4 18  1  0  0  0  0
  5  4  1  0  0  0  0
  5 19  1  0  0  0  0
  5 20  1  0  0  0  0
  6  5  1  0  0  0  0
  6  7  1  0  0  0  0
  6 21  1  0  0  0  0
  6 22  1  0  0  0  0
  7 23  1  0  0  0  0
  7 24  1  0  0  0  0
  7 25  1  0  0  0  0
  8 26  1  0  0  0  0
  8 27  1  0  0  0  0
  9 10  1  0  0  0  0
  9  8  1  0  0  0  0
  9 28  1  0  0  0  0
  9 29  1  0  0  0  0
 10 30  1  0  0  0  0
 10 31  1  0  0  0  0
 11 10  1  0  0  0  0
 11 32  1  0  0  0  0
 11 33  1  0  0  0  0
 12 11  1  0  0  0  0
 12 34  1  0  0  0  0
 12 35  1  0  0  0  0
 12 36  1  0  0  0  0
M  END
$$$$
