smi_total_1_1_replica-1.pdbqt
 OpenBabel02022121403D

 33 34  0  0  0  0  0  0  0  0999 V2000
    1.5180   53.5630   10.2270 C   0  0  0  0  0  0  0  0  0  0  0  0
    2.3160   54.7390   10.7030 C   0  0  0  0  0  0  0  0  0  0  0  0
    1.7320   56.0140   10.7660 C   0  0  0  0  0  0  0  0  0  0  0  0
    2.4360   57.1730   11.1790 C   0  0  0  0  0  0  0  0  0  0  0  0
    3.8100   57.0070   11.5290 C   0  0  0  0  0  0  0  0  0  0  0  0
    4.5760   58.1250   11.9520 C   0  0  0  0  0  0  0  0  0  0  0  0
    3.9820   59.3870   12.0220 C   0  0  0  0  0  0  0  0  0  0  0  0
    2.6470   59.5570   11.6820 C   0  0  0  0  0  0  0  0  0  0  0  0
    6.0290   58.0070   12.3340 C   0  0  0  0  0  0  0  0  0  0  0  0
    4.3850   55.7180   11.4440 C   0  0  0  0  0  0  0  0  0  0  0  0
    1.8510   58.4760   11.2580 C   0  0  0  0  0  0  0  0  0  0  0  0
    3.6560   54.6040   11.0330 C   0  0  0  0  0  0  0  0  0  0  0  0
    0.3990   58.8230   10.9180 C   0  0  0  0  0  0  0  0  0  0  0  0
   -0.2070   59.8830   11.8420 C   0  0  0  0  0  0  0  0  0  0  0  0
    0.1750   59.1300    9.4350 C   0  0  0  0  0  0  0  0  0  0  0  0
    0.5134   53.8716   10.0257 H   0  0  0  0  0  0  0  0  0  0  0  0
    1.5138   52.8054   10.9826 H   0  0  0  0  0  0  0  0  0  0  0  0
    1.9571   53.1724    9.3328 H   0  0  0  0  0  0  0  0  0  0  0  0
    0.7402   56.1125   10.4982 H   0  0  0  0  0  0  0  0  0  0  0  0
    4.5398   60.1993   12.3288 H   0  0  0  0  0  0  0  0  0  0  0  0
    2.2280   60.4982   11.7414 H   0  0  0  0  0  0  0  0  0  0  0  0
    6.3432   56.9893   12.2317 H   0  0  0  0  0  0  0  0  0  0  0  0
    6.1574   58.3196   13.3492 H   0  0  0  0  0  0  0  0  0  0  0  0
    6.6181   58.6283   11.6923 H   0  0  0  0  0  0  0  0  0  0  0  0
    5.3788   55.5982   11.6950 H   0  0  0  0  0  0  0  0  0  0  0  0
    4.1124   53.6803   10.9743 H   0  0  0  0  0  0  0  0  0  0  0  0
   -0.1489   57.9245   11.1111 H   0  0  0  0  0  0  0  0  0  0  0  0
    0.3002   60.8140   11.6976 H   0  0  0  0  0  0  0  0  0  0  0  0
   -0.0992   59.5723   12.8602 H   0  0  0  0  0  0  0  0  0  0  0  0
   -1.2454   60.0034   11.6139 H   0  0  0  0  0  0  0  0  0  0  0  0
    0.7002   60.0246    9.1727 H   0  0  0  0  0  0  0  0  0  0  0  0
   -0.8708   59.2639    9.2525 H   0  0  0  0  0  0  0  0  0  0  0  0
    0.5390   58.3162    8.8433 H   0  0  0  0  0  0  0  0  0  0  0  0
  1  2  1  0  0  0  0
  1 16  1  0  0  0  0
  1 17  1  0  0  0  0
  1 18  1  0  0  0  0
  2  3  2  0  0  0  0
  2 12  1  0  0  0  0
  3  4  1  0  0  0  0
  3 19  1  0  0  0  0
  4 11  2  0  0  0  0
  4  5  1  0  0  0  0
  5  6  2  0  0  0  0
  6  7  1  0  0  0  0
  6  9  1  0  0  0  0
  7 20  1  0  0  0  0
  8  7  2  0  0  0  0
  8 21  1  0  0  0  0
  9 22  1  0  0  0  0
  9 23  1  0  0  0  0
  9 24  1  0  0  0  0
 10  5  1  0  0  0  0
 10 25  1  0  0  0  0
 11  8  1  0  0  0  0
 12 10  2  0  0  0  0
 12 26  1  0  0  0  0
 13 11  1  0  0  0  0
 13 14  1  0  0  0  0
 13 27  1  0  0  0  0
 14 28  1  0  0  0  0
 14 29  1  0  0  0  0
 14 30  1  0  0  0  0
 15 13  1  0  0  0  0
 15 31  1  0  0  0  0
 15 32  1  0  0  0  0
 15 33  1  0  0  0  0
M  END
$$$$
