smi_total_3_2_replica-1.pdbqt
 OpenBabel02022121403D

 38 37  0  0  1  0  0  0  0  0999 V2000
    5.9220   56.0400   11.0710 C   0  0  0  0  0  0  0  0  0  0  0  0
    4.6360   55.3410   11.5290 C   0  0  0  0  0  0  0  0  0  0  0  0
    3.3740   55.7250   10.7180 C   0  0  1  0  0  0  0  0  0  0  0  0
    2.3830   54.5580   10.6270 C   0  0  0  0  0  0  0  0  0  0  0  0
    2.7280   57.0310   11.2800 C   0  0  0  0  0  0  0  0  0  0  0  0
    1.5910   57.5500   10.3920 C   0  0  0  0  0  0  0  0  0  0  0  0
    2.2280   56.9080   12.7230 C   0  0  0  0  0  0  0  0  0  0  0  0
    7.0230   55.0200   10.7610 C   0  0  0  0  0  0  0  0  0  0  0  0
    8.1020   55.6230    9.8600 C   0  0  0  0  0  0  0  0  0  0  0  0
    8.4490   54.6890    8.6990 C   0  0  0  0  0  0  0  0  0  0  0  0
    9.7090   55.1580    7.9690 C   0  0  0  0  0  0  0  0  0  0  0  0
   10.2130   56.4830    8.5150 C   0  0  0  0  0  0  0  0  0  0  0  0
    5.7152   56.6100   10.1894 H   0  0  0  0  0  0  0  0  0  0  0  0
    6.2618   56.6782   11.8598 H   0  0  0  0  0  0  0  0  0  0  0  0
    4.7806   54.2844   11.4422 H   0  0  0  0  0  0  0  0  0  0  0  0
    4.4592   55.6572   12.5358 H   0  0  0  0  0  0  0  0  0  0  0  0
    3.6727   55.9356    9.7123 H   0  0  0  0  0  0  0  0  0  0  0  0
    2.0457   54.2992   11.6089 H   0  0  0  0  0  0  0  0  0  0  0  0
    2.8663   53.7136   10.1818 H   0  0  0  0  0  0  0  0  0  0  0  0
    1.5457   54.8471   10.0269 H   0  0  0  0  0  0  0  0  0  0  0  0
    3.5299   57.7395   11.2766 H   0  0  0  0  0  0  0  0  0  0  0  0
    0.7870   56.8439   10.3929 H   0  0  0  0  0  0  0  0  0  0  0  0
    1.9501   57.6803    9.3925 H   0  0  0  0  0  0  0  0  0  0  0  0
    1.2423   58.4880   10.7708 H   0  0  0  0  0  0  0  0  0  0  0  0
    1.4227   56.2045   12.7627 H   0  0  0  0  0  0  0  0  0  0  0  0
    1.8850   57.8624   13.0642 H   0  0  0  0  0  0  0  0  0  0  0  0
    3.0271   56.5712   13.3499 H   0  0  0  0  0  0  0  0  0  0  0  0
    7.4726   54.7028   11.6787 H   0  0  0  0  0  0  0  0  0  0  0  0
    6.5807   54.1908   10.2495 H   0  0  0  0  0  0  0  0  0  0  0  0
    7.7461   56.5515    9.4649 H   0  0  0  0  0  0  0  0  0  0  0  0
    8.9845   55.7720   10.4464 H   0  0  0  0  0  0  0  0  0  0  0  0
    8.6137   53.7033    9.0813 H   0  0  0  0  0  0  0  0  0  0  0  0
    7.6342   54.6935    8.0055 H   0  0  0  0  0  0  0  0  0  0  0  0
   10.4743   54.4198    8.0886 H   0  0  0  0  0  0  0  0  0  0  0  0
    9.4656   55.2933    6.9359 H   0  0  0  0  0  0  0  0  0  0  0  0
   10.4629   56.3706    9.5493 H   0  0  0  0  0  0  0  0  0  0  0  0
    9.4493   57.2252    8.4112 H   0  0  0  0  0  0  0  0  0  0  0  0
   11.0818   56.7864    7.9691 H   0  0  0  0  0  0  0  0  0  0  0  0
  1  2  1  0  0  0  0
  1 13  1  0  0  0  0
  1 14  1  0  0  0  0
  2 15  1  0  0  0  0
  2 16  1  0  0  0  0
  3  5  1  0  0  0  0
  3  2  1  0  0  0  0
  3 17  1  6  0  0  0
  4  3  1  0  0  0  0
  4 18  1  0  0  0  0
  4 19  1  0  0  0  0
  4 20  1  0  0  0  0
  5  7  1  0  0  0  0
  5 21  1  0  0  0  0
  6  5  1  0  0  0  0
  6 22  1  0  0  0  0
  6 23  1  0  0  0  0
  6 24  1  0  0  0  0
  7 25  1  0  0  0  0
  7 26  1  0  0  0  0
  7 27  1  0  0  0  0
  8  1  1  0  0  0  0
  8 28  1  0  0  0  0
  8 29  1  0  0  0  0
  9  8  1  0  0  0  0
  9 30  1  0  0  0  0
  9 31  1  0  0  0  0
 10  9  1  0  0  0  0
 10 32  1  0  0  0  0
 10 33  1  0  0  0  0
 11 12  1  0  0  0  0
 11 10  1  0  0  0  0
 11 34  1  0  0  0  0
 11 35  1  0  0  0  0
 12 36  1  0  0  0  0
 12 37  1  0  0  0  0
 12 38  1  0  0  0  0
M  END
$$$$
