smi_total_3_1_replica-1.pdbqt
 OpenBabel02022121403D

 38 37  0  0  0  0  0  0  0  0999 V2000
    6.1460   56.7320   11.4410 C   0  0  0  0  0  0  0  0  0  0  0  0
    4.9610   55.7960   11.1090 C   0  0  0  0  0  0  0  0  0  0  0  0
    3.5410   56.3220   11.3890 C   0  0  0  0  0  0  0  0  0  0  0  0
    2.4370   55.5970   10.6210 C   0  0  0  0  0  0  0  0  0  0  0  0
    1.1630   55.3930   11.4240 C   0  0  0  0  0  0  0  0  0  0  0  0
    0.5420   54.0310   11.0850 C   0  0  0  0  0  0  0  0  0  0  0  0
    1.4480   53.2670   10.1350 C   0  0  0  0  0  0  0  0  0  0  0  0
    7.4440   56.4690   10.6720 C   0  0  0  0  0  0  0  0  0  0  0  0
    7.7180   54.9990   10.3410 C   0  0  0  0  0  0  0  0  0  0  0  0
    8.2880   54.8030    8.9150 C   0  0  0  0  0  0  0  0  0  0  0  0
    9.4810   55.7290    8.6520 C   0  0  0  0  0  0  0  0  0  0  0  0
   10.2130   55.5070    7.3370 C   0  0  0  0  0  0  0  0  0  0  0  0
    5.8392   57.7356   11.2322 H   0  0  0  0  0  0  0  0  0  0  0  0
    6.3779   56.5506   12.4697 H   0  0  0  0  0  0  0  0  0  0  0  0
    5.0175   55.5647   10.0658 H   0  0  0  0  0  0  0  0  0  0  0  0
    5.0784   54.9620   11.7690 H   0  0  0  0  0  0  0  0  0  0  0  0
    3.3453   56.2166   12.4357 H   0  0  0  0  0  0  0  0  0  0  0  0
    3.5225   57.3406   11.0619 H   0  0  0  0  0  0  0  0  0  0  0  0
    2.8064   54.6374   10.3249 H   0  0  0  0  0  0  0  0  0  0  0  0
    2.1826   56.2140    9.7846 H   0  0  0  0  0  0  0  0  0  0  0  0
    0.4661   56.1693   11.1863 H   0  0  0  0  0  0  0  0  0  0  0  0
    1.3968   55.4227   12.4677 H   0  0  0  0  0  0  0  0  0  0  0  0
    0.4153   53.4659   11.9847 H   0  0  0  0  0  0  0  0  0  0  0  0
   -0.4072   54.1856   10.6159 H   0  0  0  0  0  0  0  0  0  0  0  0
    2.3993   53.1093   10.5988 H   0  0  0  0  0  0  0  0  0  0  0  0
    1.5789   53.8316    9.2356 H   0  0  0  0  0  0  0  0  0  0  0  0
    1.0040   52.3219    9.9014 H   0  0  0  0  0  0  0  0  0  0  0  0
    7.3998   57.0131    9.7517 H   0  0  0  0  0  0  0  0  0  0  0  0
    8.2395   56.7823   11.3153 H   0  0  0  0  0  0  0  0  0  0  0  0
    8.4240   54.6150   11.0474 H   0  0  0  0  0  0  0  0  0  0  0  0
    6.7849   54.4777   10.3902 H   0  0  0  0  0  0  0  0  0  0  0  0
    8.6059   53.7873    8.8047 H   0  0  0  0  0  0  0  0  0  0  0  0
    7.5180   55.0410    8.2112 H   0  0  0  0  0  0  0  0  0  0  0  0
    9.1228   56.7372    8.6624 H   0  0  0  0  0  0  0  0  0  0  0  0
   10.1925   55.5125    9.4213 H   0  0  0  0  0  0  0  0  0  0  0  0
    9.5503   55.7087    6.5215 H   0  0  0  0  0  0  0  0  0  0  0  0
   10.5477   54.4922    7.2820 H   0  0  0  0  0  0  0  0  0  0  0  0
   11.0558   56.1640    7.2826 H   0  0  0  0  0  0  0  0  0  0  0  0
  1 13  1  0  0  0  0
  1 14  1  0  0  0  0
  2  3  1  0  0  0  0
  2  1  1  0  0  0  0
  2 15  1  0  0  0  0
  2 16  1  0  0  0  0
  3 17  1  0  0  0  0
  3 18  1  0  0  0  0
  4  3  1  0  0  0  0
  4  5  1  0  0  0  0
  4 19  1  0  0  0  0
  4 20  1  0  0  0  0
  5 21  1  0  0  0  0
  5 22  1  0  0  0  0
  6  5  1  0  0  0  0
  6 23  1  0  0  0  0
  6 24  1  0  0  0  0
  7  6  1  0  0  0  0
  7 25  1  0  0  0  0
  7 26  1  0  0  0  0
  7 27  1  0  0  0  0
  8  1  1  0  0  0  0
  8 28  1  0  0  0  0
  8 29  1  0  0  0  0
  9  8  1  0  0  0  0
  9 30  1  0  0  0  0
  9 31  1  0  0  0  0
 10  9  1  0  0  0  0
 10 32  1  0  0  0  0
 10 33  1  0  0  0  0
 11 10  1  0  0  0  0
 11 34  1  0  0  0  0
 11 35  1  0  0  0  0
 12 11  1  0  0  0  0
 12 36  1  0  0  0  0
 12 37  1  0  0  0  0
 12 38  1  0  0  0  0
M  END
$$$$
