smi_total_3_1_replica-1.pdbqt
 OpenBabel02022121403D

 36 35  0  0  0  0  0  0  0  0999 V2000
    4.3520   57.7890   13.2480 C   0  0  0  0  0  0  0  0  0  0  0  0
    5.3160   58.2390   12.1260 C   0  0  0  0  0  0  0  0  0  0  0  0
    6.7890   57.8050   12.2400 C   0  0  0  0  0  0  0  0  0  0  0  0
    7.2240   56.7720   11.2020 C   0  0  0  0  0  0  0  0  0  0  0  0
    6.1220   55.8090   10.7930 C   0  0  0  0  0  0  0  0  0  0  0  0
    5.9260   54.7440   11.8810 C   0  0  0  0  0  0  0  0  0  0  0  0
    7.2670   54.1530   12.2800 C   0  0  0  0  0  0  0  0  0  0  0  0
    3.0730   57.0820   12.7890 C   0  0  0  0  0  0  0  0  0  0  0  0
    2.7640   57.2000   11.2940 C   0  0  0  0  0  0  0  0  0  0  0  0
    1.7720   56.1180   10.8020 C   0  0  0  0  0  0  0  0  0  0  0  0
    2.4660   54.7670   10.5970 C   0  0  0  0  0  0  0  0  0  0  0  0
    1.5450   53.5720   10.4010 C   0  0  0  0  0  0  0  0  0  0  0  0
    4.5578   57.9549   14.2456 H   0  0  0  0  0  0  0  0  0  0  0  0
    4.9377   57.8511   11.2033 H   0  0  0  0  0  0  0  0  0  0  0  0
    5.3393   59.3064   12.1974 H   0  0  0  0  0  0  0  0  0  0  0  0
    7.4036   58.6734   12.1261 H   0  0  0  0  0  0  0  0  0  0  0  0
    6.8975   57.3403   13.1977 H   0  0  0  0  0  0  0  0  0  0  0  0
    7.5584   57.2920   10.3287 H   0  0  0  0  0  0  0  0  0  0  0  0
    7.9977   56.1858   11.6522 H   0  0  0  0  0  0  0  0  0  0  0  0
    6.3914   55.3316    9.8741 H   0  0  0  0  0  0  0  0  0  0  0  0
    5.2095   56.3529   10.6650 H   0  0  0  0  0  0  0  0  0  0  0  0
    5.2942   53.9664   11.5054 H   0  0  0  0  0  0  0  0  0  0  0  0
    5.4742   55.1979   12.7382 H   0  0  0  0  0  0  0  0  0  0  0  0
    7.7241   53.6974   11.4266 H   0  0  0  0  0  0  0  0  0  0  0  0
    7.1196   53.4161   13.0416 H   0  0  0  0  0  0  0  0  0  0  0  0
    7.9021   54.9292   12.6529 H   0  0  0  0  0  0  0  0  0  0  0  0
    2.4634   56.5634   13.4405 H   0  0  0  0  0  0  0  0  0  0  0  0
    2.3393   58.1642   11.1072 H   0  0  0  0  0  0  0  0  0  0  0  0
    3.6823   57.0625   10.7622 H   0  0  0  0  0  0  0  0  0  0  0  0
    0.9955   56.0026   11.5291 H   0  0  0  0  0  0  0  0  0  0  0  0
    1.3714   56.4343    9.8616 H   0  0  0  0  0  0  0  0  0  0  0  0
    3.0895   54.8464    9.7310 H   0  0  0  0  0  0  0  0  0  0  0  0
    3.0017   54.5752   11.5032 H   0  0  0  0  0  0  0  0  0  0  0  0
    0.9766   53.7031    9.5040 H   0  0  0  0  0  0  0  0  0  0  0  0
    0.8806   53.4930   11.2360 H   0  0  0  0  0  0  0  0  0  0  0  0
    2.1301   52.6794   10.3251 H   0  0  0  0  0  0  0  0  0  0  0  0
  1 13  1  0  0  0  0
  2  3  1  0  0  0  0
  2  1  1  0  0  0  0
  2 14  1  0  0  0  0
  2 15  1  0  0  0  0
  3 16  1  0  0  0  0
  3 17  1  0  0  0  0
  4  3  1  0  0  0  0
  4 18  1  0  0  0  0
  4 19  1  0  0  0  0
  5  4  1  0  0  0  0
  5  6  1  0  0  0  0
  5 20  1  0  0  0  0
  5 21  1  0  0  0  0
  6  7  1  0  0  0  0
  6 22  1  0  0  0  0
  6 23  1  0  0  0  0
  7 24  1  0  0  0  0
  7 25  1  0  0  0  0
  7 26  1  0  0  0  0
  8  1  2  0  0  0  0
  8 27  1  0  0  0  0
  9  8  1  0  0  0  0
  9 28  1  0  0  0  0
  9 29  1  0  0  0  0
 10  9  1  0  0  0  0
 10 30  1  0  0  0  0
 10 31  1  0  0  0  0
 11 10  1  0  0  0  0
 11 32  1  0  0  0  0
 11 33  1  0  0  0  0
 12 11  1  0  0  0  0
 12 34  1  0  0  0  0
 12 35  1  0  0  0  0
 12 36  1  0  0  0  0
M  END
$$$$
