smi_total_1_1_replica-1.pdbqt
 OpenBabel02022121403D

 33 34  0  0  0  0  0  0  0  0999 V2000
    0.0170   59.6280   13.0970 C   0  0  0  0  0  0  0  0  0  0  0  0
    0.6440   58.3920   12.5260 C   0  0  0  0  0  0  0  0  0  0  0  0
    2.0380   58.2340   12.5390 C   0  0  0  0  0  0  0  0  0  0  0  0
    2.6990   57.1040   11.9910 C   0  0  0  0  0  0  0  0  0  0  0  0
    1.8790   56.1010   11.3940 C   0  0  0  0  0  0  0  0  0  0  0  0
    2.4720   54.9430   10.8270 C   0  0  0  0  0  0  0  0  0  0  0  0
    3.8600   54.7900   10.8530 C   0  0  0  0  0  0  0  0  0  0  0  0
    4.6650   55.7620   11.4320 C   0  0  0  0  0  0  0  0  0  0  0  0
    1.6550   53.8520   10.1830 C   0  0  0  0  0  0  0  0  0  0  0  0
    0.4770   56.2860   11.3770 C   0  0  0  0  0  0  0  0  0  0  0  0
    4.1180   56.9260   12.0060 C   0  0  0  0  0  0  0  0  0  0  0  0
   -0.1320   57.4120   11.9270 C   0  0  0  0  0  0  0  0  0  0  0  0
    5.1330   57.9030   12.6030 C   0  0  0  0  0  0  0  0  0  0  0  0
    5.3620   57.7030   14.1040 C   0  0  0  0  0  0  0  0  0  0  0  0
    6.4390   57.9890   11.8090 C   0  0  0  0  0  0  0  0  0  0  0  0
   -1.0466   59.5671   12.9972 H   0  0  0  0  0  0  0  0  0  0  0  0
    0.3762   60.4866   12.5691 H   0  0  0  0  0  0  0  0  0  0  0  0
    0.2739   59.7126   14.1323 H   0  0  0  0  0  0  0  0  0  0  0  0
    2.6115   58.9767   12.9686 H   0  0  0  0  0  0  0  0  0  0  0  0
    4.2904   53.9484   10.4389 H   0  0  0  0  0  0  0  0  0  0  0  0
    5.6883   55.6283   11.4420 H   0  0  0  0  0  0  0  0  0  0  0  0
    2.3065   53.0818    9.8264 H   0  0  0  0  0  0  0  0  0  0  0  0
    1.1007   54.2583    9.3629 H   0  0  0  0  0  0  0  0  0  0  0  0
    0.9778   53.4415   10.9026 H   0  0  0  0  0  0  0  0  0  0  0  0
   -0.1157   55.5617   10.9420 H   0  0  0  0  0  0  0  0  0  0  0  0
   -1.1580   57.5161   11.8885 H   0  0  0  0  0  0  0  0  0  0  0  0
    4.6751   58.8653   12.5068 H   0  0  0  0  0  0  0  0  0  0  0  0
    5.8215   56.7512   14.2710 H   0  0  0  0  0  0  0  0  0  0  0  0
    4.4233   57.7407   14.6161 H   0  0  0  0  0  0  0  0  0  0  0  0
    6.0013   58.4774   14.4736 H   0  0  0  0  0  0  0  0  0  0  0  0
    6.9520   57.0516   11.8637 H   0  0  0  0  0  0  0  0  0  0  0  0
    7.0573   58.7586   12.2217 H   0  0  0  0  0  0  0  0  0  0  0  0
    6.2205   58.2169   10.7866 H   0  0  0  0  0  0  0  0  0  0  0  0
  1 16  1  0  0  0  0
  1 17  1  0  0  0  0
  1 18  1  0  0  0  0
  2  3  1  0  0  0  0
  2  1  1  0  0  0  0
  3 19  1  0  0  0  0
  4 11  1  0  0  0  0
  4  3  2  0  0  0  0
  5  4  1  0  0  0  0
  6  7  2  0  0  0  0
  6  5  1  0  0  0  0
  7  8  1  0  0  0  0
  7 20  1  0  0  0  0
  8 11  2  0  0  0  0
  8 21  1  0  0  0  0
  9  6  1  0  0  0  0
  9 22  1  0  0  0  0
  9 23  1  0  0  0  0
  9 24  1  0  0  0  0
 10  5  2  0  0  0  0
 10 12  1  0  0  0  0
 10 25  1  0  0  0  0
 11 13  1  0  0  0  0
 12  2  2  0  0  0  0
 12 26  1  0  0  0  0
 13 14  1  0  0  0  0
 13 27  1  0  0  0  0
 14 28  1  0  0  0  0
 14 29  1  0  0  0  0
 14 30  1  0  0  0  0
 15 13  1  0  0  0  0
 15 31  1  0  0  0  0
 15 32  1  0  0  0  0
 15 33  1  0  0  0  0
M  END
$$$$
