smi_total_5_2_replica-1.pdbqt
 OpenBabel02022121403D

 37 36  0  0  1  0  0  0  0  0999 V2000
    6.8920   56.2160   10.4840 C   0  0  2  0  0  0  0  0  0  0  0  0
    8.0750   56.9000   11.1910 C   0  0  0  0  0  0  0  0  0  0  0  0
    5.7670   55.7230   11.4310 C   0  0  0  0  0  0  0  0  0  0  0  0
    4.3230   55.7860   11.0360 C   0  0  0  0  0  0  0  0  0  0  0  0
    3.4400   54.7640   11.0160 C   0  0  0  0  0  0  0  0  0  0  0  0
    2.0250   54.8260   10.5550 C   0  0  0  0  0  0  0  0  0  0  0  0
    1.4750   53.4240   10.3800 C   0  0  0  0  0  0  0  0  0  0  0  0
    7.4780   55.0160    9.7050 C   0  0  0  0  0  0  0  0  0  0  0  0
    9.0000   55.0440    9.5340 C   0  0  0  0  0  0  0  0  0  0  0  0
    9.4310   55.0230    8.0950 C   0  0  0  0  0  0  0  0  0  0  0  0
   10.1340   55.9580    7.4260 C   0  0  0  0  0  0  0  0  0  0  0  0
   10.4790   55.7550    5.9760 C   0  0  0  0  0  0  0  0  0  0  0  0
   10.6390   57.2580    7.9910 C   0  0  0  0  0  0  0  0  0  0  0  0
    6.4209   56.9401    9.8527 H   0  0  0  0  0  0  0  0  0  0  0  0
    8.5644   56.1951   11.8302 H   0  0  0  0  0  0  0  0  0  0  0  0
    7.7151   57.7211   11.7750 H   0  0  0  0  0  0  0  0  0  0  0  0
    8.7682   57.2594   10.4595 H   0  0  0  0  0  0  0  0  0  0  0  0
    5.8584   56.2951   12.3306 H   0  0  0  0  0  0  0  0  0  0  0  0
    5.9472   54.6690   11.4704 H   0  0  0  0  0  0  0  0  0  0  0  0
    3.9644   56.7099   10.7482 H   0  0  0  0  0  0  0  0  0  0  0  0
    3.7794   53.8497   11.3535 H   0  0  0  0  0  0  0  0  0  0  0  0
    1.4383   55.3488   11.2812 H   0  0  0  0  0  0  0  0  0  0  0  0
    1.9832   55.3394    9.6171 H   0  0  0  0  0  0  0  0  0  0  0  0
    1.5145   52.9060   11.3154 H   0  0  0  0  0  0  0  0  0  0  0  0
    2.0620   52.8983    9.6561 H   0  0  0  0  0  0  0  0  0  0  0  0
    0.4603   53.4782   10.0449 H   0  0  0  0  0  0  0  0  0  0  0  0
    7.2181   54.1199   10.2288 H   0  0  0  0  0  0  0  0  0  0  0  0
    7.0628   55.0640    8.7200 H   0  0  0  0  0  0  0  0  0  0  0  0
    9.3777   55.9353    9.9898 H   0  0  0  0  0  0  0  0  0  0  0  0
    9.3897   54.1616    9.9971 H   0  0  0  0  0  0  0  0  0  0  0  0
    9.1547   54.1900    7.5520 H   0  0  0  0  0  0  0  0  0  0  0  0
   11.0351   56.5971    5.6204 H   0  0  0  0  0  0  0  0  0  0  0  0
    9.5791   55.6554    5.4058 H   0  0  0  0  0  0  0  0  0  0  0  0
   11.0682   54.8681    5.8703 H   0  0  0  0  0  0  0  0  0  0  0  0
   11.1632   57.7978    7.2303 H   0  0  0  0  0  0  0  0  0  0  0  0
   11.3011   57.0587    8.8075 H   0  0  0  0  0  0  0  0  0  0  0  0
    9.8117   57.8418    8.3369 H   0  0  0  0  0  0  0  0  0  0  0  0
  1  2  1  0  0  0  0
  1  3  1  0  0  0  0
  1 14  1  6  0  0  0
  2 15  1  0  0  0  0
  2 16  1  0  0  0  0
  2 17  1  0  0  0  0
  3 18  1  0  0  0  0
  3 19  1  0  0  0  0
  4  3  1  0  0  0  0
  4 20  1  0  0  0  0
  5  4  2  0  0  0  0
  5 21  1  0  0  0  0
  6  5  1  0  0  0  0
  6 22  1  0  0  0  0
  6 23  1  0  0  0  0
  7  6  1  0  0  0  0
  7 24  1  0  0  0  0
  7 25  1  0  0  0  0
  7 26  1  0  0  0  0
  8  1  1  0  0  0  0
  8 27  1  0  0  0  0
  8 28  1  0  0  0  0
  9  8  1  0  0  0  0
  9 29  1  0  0  0  0
  9 30  1  0  0  0  0
 10  9  1  0  0  0  0
 10 31  1  0  0  0  0
 11 13  1  0  0  0  0
 11 10  2  0  0  0  0
 12 11  1  0  0  0  0
 12 32  1  0  0  0  0
 12 33  1  0  0  0  0
 12 34  1  0  0  0  0
 13 35  1  0  0  0  0
 13 36  1  0  0  0  0
 13 37  1  0  0  0  0
M  END
$$$$
