smi_total_5_1_replica-1.pdbqt
 OpenBabel02022121403D

 40 41  0  0  1  0  0  0  0  0999 V2000
    4.2480   56.0480   12.2240 C   0  0  1  0  0  0  0  0  0  0  0  0
    5.5210   55.2910   11.7570 C   0  0  2  0  0  0  0  0  0  0  0  0
    6.3680   54.8450   12.9730 C   0  0  1  0  0  0  0  0  0  0  0  0
    7.6310   54.0950   12.5230 C   0  0  0  0  0  0  0  0  0  0  0  0
    8.4530   54.8630   11.4910 C   0  0  0  0  0  0  0  0  0  0  0  0
    7.6010   55.2870   10.3020 C   0  0  0  0  0  0  0  0  0  0  0  0
    6.7040   56.0230   13.9010 C   0  0  0  0  0  0  0  0  0  0  0  0
    5.4430   56.7510   14.3540 C   0  0  0  0  0  0  0  0  0  0  0  0
    6.3690   56.0760   10.7380 C   0  0  0  0  0  0  0  0  0  0  0  0
    4.5950   57.2110   13.1710 C   0  0  0  0  0  0  0  0  0  0  0  0
    3.3500   56.5610   11.0750 C   0  0  0  0  0  0  0  0  0  0  0  0
    2.0640   55.7460   10.8950 C   0  0  0  0  0  0  0  0  0  0  0  0
    2.3520   54.3620   10.3120 C   0  0  0  0  0  0  0  0  0  0  0  0
    1.1380   53.4530   10.4320 C   0  0  0  0  0  0  0  0  0  0  0  0
    3.6779   55.3114   12.7506 H   0  0  0  0  0  0  0  0  0  0  0  0
    5.1799   54.4212   11.2354 H   0  0  0  0  0  0  0  0  0  0  0  0
    5.7739   54.1629   13.5446 H   0  0  0  0  0  0  0  0  0  0  0  0
    8.2443   53.9168   13.3815 H   0  0  0  0  0  0  0  0  0  0  0  0
    7.3114   53.1847   12.0603 H   0  0  0  0  0  0  0  0  0  0  0  0
    8.8635   55.7362   11.9535 H   0  0  0  0  0  0  0  0  0  0  0  0
    9.2301   54.2196   11.1346 H   0  0  0  0  0  0  0  0  0  0  0  0
    8.1922   55.8991    9.6534 H   0  0  0  0  0  0  0  0  0  0  0  0
    7.2682   54.4026    9.7999 H   0  0  0  0  0  0  0  0  0  0  0  0
    7.3338   56.7109   13.3765 H   0  0  0  0  0  0  0  0  0  0  0  0
    7.2007   55.6385   14.7672 H   0  0  0  0  0  0  0  0  0  0  0  0
    4.8606   56.0893   14.9605 H   0  0  0  0  0  0  0  0  0  0  0  0
    5.7409   57.6182   14.9055 H   0  0  0  0  0  0  0  0  0  0  0  0
    5.7695   56.2867    9.8771 H   0  0  0  0  0  0  0  0  0  0  0  0
    6.6999   56.9799   11.2053 H   0  0  0  0  0  0  0  0  0  0  0  0
    3.6864   57.6372   13.5421 H   0  0  0  0  0  0  0  0  0  0  0  0
    5.1619   57.9302   12.6176 H   0  0  0  0  0  0  0  0  0  0  0  0
    3.0818   57.5760   11.2818 H   0  0  0  0  0  0  0  0  0  0  0  0
    3.9122   56.4669   10.1695 H   0  0  0  0  0  0  0  0  0  0  0  0
    1.5902   55.6300   11.8473 H   0  0  0  0  0  0  0  0  0  0  0  0
    1.4278   56.2707   10.2132 H   0  0  0  0  0  0  0  0  0  0  0  0
    2.6105   54.4650    9.2788 H   0  0  0  0  0  0  0  0  0  0  0  0
    3.1597   53.9239   10.8602 H   0  0  0  0  0  0  0  0  0  0  0  0
    0.3197   53.8771    9.8884 H   0  0  0  0  0  0  0  0  0  0  0  0
    0.8679   53.3528   11.4625 H   0  0  0  0  0  0  0  0  0  0  0  0
    1.3725   52.4897   10.0295 H   0  0  0  0  0  0  0  0  0  0  0  0
  1 10  1  0  0  0  0
  1 15  1  1  0  0  0
  2  1  1  0  0  0  0
  2  3  1  0  0  0  0
  2 16  1  6  0  0  0
  3  7  1  0  0  0  0
  3 17  1  1  0  0  0
  4  3  1  0  0  0  0
  4 18  1  0  0  0  0
  4 19  1  0  0  0  0
  5  4  1  0  0  0  0
  5 20  1  0  0  0  0
  5 21  1  0  0  0  0
  6  9  1  0  0  0  0
  6  5  1  0  0  0  0
  6 22  1  0  0  0  0
  6 23  1  0  0  0  0
  7  8  1  0  0  0  0
  7 24  1  0  0  0  0
  7 25  1  0  0  0  0
  8 26  1  0  0  0  0
  8 27  1  0  0  0  0
  9  2  1  0  0  0  0
  9 28  1  0  0  0  0
  9 29  1  0  0  0  0
 10  8  1  0  0  0  0
 10 30  1  0  0  0  0
 10 31  1  0  0  0  0
 11  1  1  0  0  0  0
 11 32  1  0  0  0  0
 11 33  1  0  0  0  0
 12 11  1  0  0  0  0
 12 34  1  0  0  0  0
 12 35  1  0  0  0  0
 13 14  1  0  0  0  0
 13 12  1  0  0  0  0
 13 36  1  0  0  0  0
 13 37  1  0  0  0  0
 14 38  1  0  0  0  0
 14 39  1  0  0  0  0
 14 40  1  0  0  0  0
M  END
$$$$
