smi_total_3_1_replica-1.pdbqt
 OpenBabel02022121403D

 38 37  0  0  0  0  0  0  0  0999 V2000
    5.6710   55.0720   11.9170 C   0  0  0  0  0  0  0  0  0  0  0  0
    7.1750   55.3600   11.7010 C   0  0  0  0  0  0  0  0  0  0  0  0
    7.6400   55.6570   10.2630 C   0  0  0  0  0  0  0  0  0  0  0  0
    8.9270   56.4760   10.1730 C   0  0  0  0  0  0  0  0  0  0  0  0
    9.7600   56.1790    8.9360 C   0  0  0  0  0  0  0  0  0  0  0  0
    9.3950   54.7960    8.3790 C   0  0  0  0  0  0  0  0  0  0  0  0
   10.4780   53.7910    8.7290 C   0  0  0  0  0  0  0  0  0  0  0  0
    4.7070   55.8130   10.9850 C   0  0  0  0  0  0  0  0  0  0  0  0
    3.4280   56.3310   11.6490 C   0  0  0  0  0  0  0  0  0  0  0  0
    2.1430   55.8300   10.9440 C   0  0  0  0  0  0  0  0  0  0  0  0
    2.3440   54.4440   10.3220 C   0  0  0  0  0  0  0  0  0  0  0  0
    1.1950   53.4640   10.5030 C   0  0  0  0  0  0  0  0  0  0  0  0
    5.5156   54.0220   11.7818 H   0  0  0  0  0  0  0  0  0  0  0  0
    5.4477   55.4230   12.9028 H   0  0  0  0  0  0  0  0  0  0  0  0
    7.4291   56.2079   12.3021 H   0  0  0  0  0  0  0  0  0  0  0  0
    7.6691   54.4486   11.9658 H   0  0  0  0  0  0  0  0  0  0  0  0
    7.8011   54.7244    9.7639 H   0  0  0  0  0  0  0  0  0  0  0  0
    6.8707   56.2455    9.8084 H   0  0  0  0  0  0  0  0  0  0  0  0
    8.6662   57.5137   10.1626 H   0  0  0  0  0  0  0  0  0  0  0  0
    9.5239   56.2115   11.0207 H   0  0  0  0  0  0  0  0  0  0  0  0
    9.5674   56.9232    8.1917 H   0  0  0  0  0  0  0  0  0  0  0  0
   10.7971   56.1899    9.1991 H   0  0  0  0  0  0  0  0  0  0  0  0
    8.4658   54.4774    8.8033 H   0  0  0  0  0  0  0  0  0  0  0  0
    9.3061   54.8591    7.3146 H   0  0  0  0  0  0  0  0  0  0  0  0
   10.5716   53.7235    9.7928 H   0  0  0  0  0  0  0  0  0  0  0  0
   11.4091   54.1090    8.3085 H   0  0  0  0  0  0  0  0  0  0  0  0
   10.2165   52.8322    8.3324 H   0  0  0  0  0  0  0  0  0  0  0  0
    5.2268   56.6507   10.5691 H   0  0  0  0  0  0  0  0  0  0  0  0
    4.3934   55.0985   10.2528 H   0  0  0  0  0  0  0  0  0  0  0  0
    3.4119   55.9992   12.6661 H   0  0  0  0  0  0  0  0  0  0  0  0
    3.4384   57.3988   11.5811 H   0  0  0  0  0  0  0  0  0  0  0  0
    1.3514   55.7768   11.6619 H   0  0  0  0  0  0  0  0  0  0  0  0
    1.9024   56.5169   10.1596 H   0  0  0  0  0  0  0  0  0  0  0  0
    2.5012   54.5752    9.2718 H   0  0  0  0  0  0  0  0  0  0  0  0
    3.1773   54.0128   10.8364 H   0  0  0  0  0  0  0  0  0  0  0  0
    0.3242   53.8399   10.0077 H   0  0  0  0  0  0  0  0  0  0  0  0
    0.9886   53.3451   11.5461 H   0  0  0  0  0  0  0  0  0  0  0  0
    1.4639   52.5175   10.0825 H   0  0  0  0  0  0  0  0  0  0  0  0
  1 13  1  0  0  0  0
  1 14  1  0  0  0  0
  2  1  1  0  0  0  0
  2 15  1  0  0  0  0
  2 16  1  0  0  0  0
  3  2  1  0  0  0  0
  3 17  1  0  0  0  0
  3 18  1  0  0  0  0
  4  3  1  0  0  0  0
  4 19  1  0  0  0  0
  4 20  1  0  0  0  0
  5  4  1  0  0  0  0
  5 21  1  0  0  0  0
  5 22  1  0  0  0  0
  6  7  1  0  0  0  0
  6  5  1  0  0  0  0
  6 23  1  0  0  0  0
  6 24  1  0  0  0  0
  7 25  1  0  0  0  0
  7 26  1  0  0  0  0
  7 27  1  0  0  0  0
  8  9  1  0  0  0  0
  8  1  1  0  0  0  0
  8 28  1  0  0  0  0
  8 29  1  0  0  0  0
  9 30  1  0  0  0  0
  9 31  1  0  0  0  0
 10  9  1  0  0  0  0
 10 32  1  0  0  0  0
 10 33  1  0  0  0  0
 11 12  1  0  0  0  0
 11 10  1  0  0  0  0
 11 34  1  0  0  0  0
 11 35  1  0  0  0  0
 12 36  1  0  0  0  0
 12 37  1  0  0  0  0
 12 38  1  0  0  0  0
M  END
$$$$
