smi_total_5_1_replica-1.pdbqt
 OpenBabel02022121403D

 40 41  0  0  1  0  0  0  0  0999 V2000
    4.9290   56.8290   11.5370 C   0  0  1  0  0  0  0  0  0  0  0  0
    5.5820   57.1760   12.9020 C   0  0  2  0  0  0  0  0  0  0  0  0
    7.0710   57.5540   12.7160 C   0  0  1  0  0  0  0  0  0  0  0  0
    7.7280   57.8980   14.0620 C   0  0  0  0  0  0  0  0  0  0  0  0
    7.5290   56.8190   15.1230 C   0  0  0  0  0  0  0  0  0  0  0  0
    6.0570   56.4670   15.2930 C   0  0  0  0  0  0  0  0  0  0  0  0
    7.8510   56.4630   11.9630 C   0  0  0  0  0  0  0  0  0  0  0  0
    7.1990   56.1410   10.6230 C   0  0  0  0  0  0  0  0  0  0  0  0
    5.4100   56.0750   13.9670 C   0  0  0  0  0  0  0  0  0  0  0  0
    5.7310   55.7540   10.7810 C   0  0  0  0  0  0  0  0  0  0  0  0
    3.4440   56.4090   11.6240 C   0  0  0  0  0  0  0  0  0  0  0  0
    3.1060   55.1820   10.7710 C   0  0  0  0  0  0  0  0  0  0  0  0
    1.6150   54.8500   10.8270 C   0  0  0  0  0  0  0  0  0  0  0  0
    1.3570   53.4110   10.4060 C   0  0  0  0  0  0  0  0  0  0  0  0
    4.9526   57.7481   10.9897 H   0  0  0  0  0  0  0  0  0  0  0  0
    5.0546   58.0266   13.2804 H   0  0  0  0  0  0  0  0  0  0  0  0
    7.1042   58.4326   12.1062 H   0  0  0  0  0  0  0  0  0  0  0  0
    7.3045   58.8119   14.4231 H   0  0  0  0  0  0  0  0  0  0  0  0
    8.7805   57.9827   13.8890 H   0  0  0  0  0  0  0  0  0  0  0  0
    7.9113   57.1751   16.0568 H   0  0  0  0  0  0  0  0  0  0  0  0
    8.0501   55.9390   14.8083 H   0  0  0  0  0  0  0  0  0  0  0  0
    5.9738   55.6465   15.9747 H   0  0  0  0  0  0  0  0  0  0  0  0
    5.5498   57.3316   15.6673 H   0  0  0  0  0  0  0  0  0  0  0  0
    8.8504   56.8046   11.7913 H   0  0  0  0  0  0  0  0  0  0  0  0
    7.8519   55.5752   12.5602 H   0  0  0  0  0  0  0  0  0  0  0  0
    7.2633   57.0023    9.9914 H   0  0  0  0  0  0  0  0  0  0  0  0
    7.7166   55.3082   10.1947 H   0  0  0  0  0  0  0  0  0  0  0  0
    5.8656   55.1744   13.6116 H   0  0  0  0  0  0  0  0  0  0  0  0
    4.3628   55.9340   14.1353 H   0  0  0  0  0  0  0  0  0  0  0  0
    5.6729   54.8340   11.3242 H   0  0  0  0  0  0  0  0  0  0  0  0
    5.3087   55.6536    9.8030 H   0  0  0  0  0  0  0  0  0  0  0  0
    3.2143   56.1857   12.6449 H   0  0  0  0  0  0  0  0  0  0  0  0
    2.8632   57.2247   11.2469 H   0  0  0  0  0  0  0  0  0  0  0  0
    3.3798   55.3791    9.7556 H   0  0  0  0  0  0  0  0  0  0  0  0
    3.6495   54.3456   11.1583 H   0  0  0  0  0  0  0  0  0  0  0  0
    1.2635   54.9894   11.8279 H   0  0  0  0  0  0  0  0  0  0  0  0
    1.0972   55.4991   10.1521 H   0  0  0  0  0  0  0  0  0  0  0  0
    1.8685   52.7475   11.0716 H   0  0  0  0  0  0  0  0  0  0  0  0
    1.7147   53.2616    9.4087 H   0  0  0  0  0  0  0  0  0  0  0  0
    0.3063   53.2119   10.4416 H   0  0  0  0  0  0  0  0  0  0  0  0
  1 11  1  0  0  0  0
  1  2  1  0  0  0  0
  1 15  1  6  0  0  0
  2  9  1  0  0  0  0
  2 16  1  1  0  0  0
  3  2  1  0  0  0  0
  3  4  1  0  0  0  0
  3 17  1  6  0  0  0
  4  5  1  0  0  0  0
  4 18  1  0  0  0  0
  4 19  1  0  0  0  0
  5  6  1  0  0  0  0
  5 20  1  0  0  0  0
  5 21  1  0  0  0  0
  6 22  1  0  0  0  0
  6 23  1  0  0  0  0
  7  3  1  0  0  0  0
  7 24  1  0  0  0  0
  7 25  1  0  0  0  0
  8 10  1  0  0  0  0
  8  7  1  0  0  0  0
  8 26  1  0  0  0  0
  8 27  1  0  0  0  0
  9  6  1  0  0  0  0
  9 28  1  0  0  0  0
  9 29  1  0  0  0  0
 10  1  1  0  0  0  0
 10 30  1  0  0  0  0
 10 31  1  0  0  0  0
 11 32  1  0  0  0  0
 11 33  1  0  0  0  0
 12 13  1  0  0  0  0
 12 11  1  0  0  0  0
 12 34  1  0  0  0  0
 12 35  1  0  0  0  0
 13 36  1  0  0  0  0
 13 37  1  0  0  0  0
 14 13  1  0  0  0  0
 14 38  1  0  0  0  0
 14 39  1  0  0  0  0
 14 40  1  0  0  0  0
M  END
$$$$
