smi_total_5_2_replica-1.pdbqt
 OpenBabel02022121403D

 37 36  0  0  1  0  0  0  0  0999 V2000
    6.4140   56.1440   11.0780 C   0  0  2  0  0  0  0  0  0  0  0  0
    7.2580   57.3430   11.5430 C   0  0  0  0  0  0  0  0  0  0  0  0
    6.1070   55.0990   12.1820 C   0  0  0  0  0  0  0  0  0  0  0  0
    7.1870   54.5320   13.0520 C   0  0  0  0  0  0  0  0  0  0  0  0
    7.6820   53.2760   13.0200 C   0  0  0  0  0  0  0  0  0  0  0  0
    8.7080   52.7050   13.9370 C   0  0  0  0  0  0  0  0  0  0  0  0
    8.5800   51.1950   13.9820 C   0  0  0  0  0  0  0  0  0  0  0  0
    7.1990   55.4710    9.9290 C   0  0  0  0  0  0  0  0  0  0  0  0
    8.6700   55.8840    9.8290 C   0  0  0  0  0  0  0  0  0  0  0  0
    9.6200   54.7570   10.1220 C   0  0  0  0  0  0  0  0  0  0  0  0
   10.4650   54.6340   11.1630 C   0  0  0  0  0  0  0  0  0  0  0  0
   11.3430   53.4180   11.2900 C   0  0  0  0  0  0  0  0  0  0  0  0
   10.6490   55.6300   12.2760 C   0  0  0  0  0  0  0  0  0  0  0  0
    5.4558   56.5120   10.7757 H   0  0  0  0  0  0  0  0  0  0  0  0
    8.2238   57.0011   11.8515 H   0  0  0  0  0  0  0  0  0  0  0  0
    6.7709   57.8247   12.3649 H   0  0  0  0  0  0  0  0  0  0  0  0
    7.3664   58.0373   10.7360 H   0  0  0  0  0  0  0  0  0  0  0  0
    5.6494   54.2666   11.6894 H   0  0  0  0  0  0  0  0  0  0  0  0
    5.5281   55.6678   12.8793 H   0  0  0  0  0  0  0  0  0  0  0  0
    7.5970   55.1705   13.7515 H   0  0  0  0  0  0  0  0  0  0  0  0
    7.3130   52.6495   12.2877 H   0  0  0  0  0  0  0  0  0  0  0  0
    8.5649   53.1022   14.9202 H   0  0  0  0  0  0  0  0  0  0  0  0
    9.6824   52.9645   13.5791 H   0  0  0  0  0  0  0  0  0  0  0  0
    7.6069   50.9300   14.3394 H   0  0  0  0  0  0  0  0  0  0  0  0
    9.3228   50.7935   14.6392 H   0  0  0  0  0  0  0  0  0  0  0  0
    8.7199   50.7957   12.9992 H   0  0  0  0  0  0  0  0  0  0  0  0
    7.1597   54.4117   10.0747 H   0  0  0  0  0  0  0  0  0  0  0  0
    6.7340   55.7893    9.0194 H   0  0  0  0  0  0  0  0  0  0  0  0
    8.8507   56.6725   10.5294 H   0  0  0  0  0  0  0  0  0  0  0  0
    8.8460   56.1957    8.8206 H   0  0  0  0  0  0  0  0  0  0  0  0
    9.6254   53.9815    9.4411 H   0  0  0  0  0  0  0  0  0  0  0  0
   11.1588   52.7577   10.4684 H   0  0  0  0  0  0  0  0  0  0  0  0
   11.1241   52.9143   12.2083 H   0  0  0  0  0  0  0  0  0  0  0  0
   12.3702   53.7175   11.2836 H   0  0  0  0  0  0  0  0  0  0  0  0
    9.9963   56.4634   12.1203 H   0  0  0  0  0  0  0  0  0  0  0  0
   11.6638   55.9690   12.2872 H   0  0  0  0  0  0  0  0  0  0  0  0
   10.4177   55.1658   13.2119 H   0  0  0  0  0  0  0  0  0  0  0  0
  1  2  1  0  0  0  0
  1  3  1  0  0  0  0
  1 14  1  6  0  0  0
  2 15  1  0  0  0  0
  2 16  1  0  0  0  0
  2 17  1  0  0  0  0
  3  4  1  0  0  0  0
  3 18  1  0  0  0  0
  3 19  1  0  0  0  0
  4 20  1  0  0  0  0
  5  4  2  0  0  0  0
  5  6  1  0  0  0  0
  5 21  1  0  0  0  0
  6  7  1  0  0  0  0
  6 22  1  0  0  0  0
  6 23  1  0  0  0  0
  7 24  1  0  0  0  0
  7 25  1  0  0  0  0
  7 26  1  0  0  0  0
  8  1  1  0  0  0  0
  8 27  1  0  0  0  0
  8 28  1  0  0  0  0
  9  8  1  0  0  0  0
  9 10  1  0  0  0  0
  9 29  1  0  0  0  0
  9 30  1  0  0  0  0
 10 11  2  0  0  0  0
 10 31  1  0  0  0  0
 11 12  1  0  0  0  0
 11 13  1  0  0  0  0
 12 32  1  0  0  0  0
 12 33  1  0  0  0  0
 12 34  1  0  0  0  0
 13 35  1  0  0  0  0
 13 36  1  0  0  0  0
 13 37  1  0  0  0  0
M  END
$$$$
