smi_total_1_1_replica-1.pdbqt
 OpenBabel02022121403D

 33 34  0  0  0  0  0  0  0  0999 V2000
    1.3600   53.4240   10.2920 C   0  0  0  0  0  0  0  0  0  0  0  0
    1.9800   54.7170   10.7290 C   0  0  0  0  0  0  0  0  0  0  0  0
    3.3750   54.8390   10.8200 C   0  0  0  0  0  0  0  0  0  0  0  0
    4.0260   56.0220   11.2540 C   0  0  0  0  0  0  0  0  0  0  0  0
    3.1950   57.1230   11.6210 C   0  0  0  0  0  0  0  0  0  0  0  0
    3.7780   58.3380   12.0630 C   0  0  0  0  0  0  0  0  0  0  0  0
    5.1680   58.4540   12.1410 C   0  0  0  0  0  0  0  0  0  0  0  0
    5.9840   57.3870   11.7870 C   0  0  0  0  0  0  0  0  0  0  0  0
    2.9480   59.5320   12.4630 C   0  0  0  0  0  0  0  0  0  0  0  0
    1.7910   56.9740   11.5370 C   0  0  0  0  0  0  0  0  0  0  0  0
    5.4470   56.1640   11.3420 C   0  0  0  0  0  0  0  0  0  0  0  0
    1.1910   55.7930   11.1050 C   0  0  0  0  0  0  0  0  0  0  0  0
    6.4740   55.0860   10.9890 C   0  0  0  0  0  0  0  0  0  0  0  0
    7.5640   55.5720   10.0310 C   0  0  0  0  0  0  0  0  0  0  0  0
    7.0390   54.3570   12.2110 C   0  0  0  0  0  0  0  0  0  0  0  0
    2.1309   52.7243   10.0451 H   0  0  0  0  0  0  0  0  0  0  0  0
    0.7455   53.5955    9.4330 H   0  0  0  0  0  0  0  0  0  0  0  0
    0.7611   53.0293   11.0860 H   0  0  0  0  0  0  0  0  0  0  0  0
    3.9562   54.0275   10.5581 H   0  0  0  0  0  0  0  0  0  0  0  0
    5.5913   59.3381   12.4637 H   0  0  0  0  0  0  0  0  0  0  0  0
    7.0085   57.4933   11.8518 H   0  0  0  0  0  0  0  0  0  0  0  0
    1.9098   59.2978   12.3526 H   0  0  0  0  0  0  0  0  0  0  0  0
    3.1946   60.3637   11.8367 H   0  0  0  0  0  0  0  0  0  0  0  0
    3.1508   59.7816   13.4835 H   0  0  0  0  0  0  0  0  0  0  0  0
    1.1894   57.7685   11.8053 H   0  0  0  0  0  0  0  0  0  0  0  0
    0.1624   55.7195   11.0651 H   0  0  0  0  0  0  0  0  0  0  0  0
    5.9205   54.3492   10.4453 H   0  0  0  0  0  0  0  0  0  0  0  0
    8.1592   56.3170   10.5164 H   0  0  0  0  0  0  0  0  0  0  0  0
    7.1101   55.9914    9.1575 H   0  0  0  0  0  0  0  0  0  0  0  0
    8.1848   54.7473    9.7493 H   0  0  0  0  0  0  0  0  0  0  0  0
    7.6086   55.0423   12.8033 H   0  0  0  0  0  0  0  0  0  0  0  0
    7.6696   53.5552   11.8880 H   0  0  0  0  0  0  0  0  0  0  0  0
    6.2337   53.9640   12.7958 H   0  0  0  0  0  0  0  0  0  0  0  0
  1  2  1  0  0  0  0
  1 16  1  0  0  0  0
  1 17  1  0  0  0  0
  1 18  1  0  0  0  0
  2  3  2  0  0  0  0
  2 12  1  0  0  0  0
  3  4  1  0  0  0  0
  3 19  1  0  0  0  0
  4 11  2  0  0  0  0
  4  5  1  0  0  0  0
  5  6  2  0  0  0  0
  6  7  1  0  0  0  0
  6  9  1  0  0  0  0
  7 20  1  0  0  0  0
  8  7  2  0  0  0  0
  8 21  1  0  0  0  0
  9 22  1  0  0  0  0
  9 23  1  0  0  0  0
  9 24  1  0  0  0  0
 10  5  1  0  0  0  0
 10 25  1  0  0  0  0
 11  8  1  0  0  0  0
 12 10  2  0  0  0  0
 12 26  1  0  0  0  0
 13 11  1  0  0  0  0
 13 15  1  0  0  0  0
 13 27  1  0  0  0  0
 14 13  1  0  0  0  0
 14 28  1  0  0  0  0
 14 29  1  0  0  0  0
 14 30  1  0  0  0  0
 15 31  1  0  0  0  0
 15 32  1  0  0  0  0
 15 33  1  0  0  0  0
M  END
$$$$
