smi_total_3_2_replica-1.pdbqt
 OpenBabel02022121403D

 38 37  0  0  1  0  0  0  0  0999 V2000
    4.2350   56.4310   12.3720 C   0  0  0  0  0  0  0  0  0  0  0  0
    4.1130   55.5490   11.1230 C   0  0  0  0  0  0  0  0  0  0  0  0
    2.7150   55.5710   10.4580 C   0  0  1  0  0  0  0  0  0  0  0  0
    2.0530   54.1880   10.4850 C   0  0  0  0  0  0  0  0  0  0  0  0
    1.8190   56.6880   11.0830 C   0  0  0  0  0  0  0  0  0  0  0  0
    1.6270   57.8800   10.1380 C   0  0  0  0  0  0  0  0  0  0  0  0
    0.4500   56.1930   11.5610 C   0  0  0  0  0  0  0  0  0  0  0  0
    5.4140   55.9890   13.2470 C   0  0  0  0  0  0  0  0  0  0  0  0
    6.3000   54.9780   12.5170 C   0  0  0  0  0  0  0  0  0  0  0  0
    7.7300   55.4970   12.3600 C   0  0  0  0  0  0  0  0  0  0  0  0
    7.9040   56.2480   11.0380 C   0  0  0  0  0  0  0  0  0  0  0  0
    7.5740   55.3670    9.8450 C   0  0  0  0  0  0  0  0  0  0  0  0
    3.3314   56.3586   12.9405 H   0  0  0  0  0  0  0  0  0  0  0  0
    4.4031   57.4406   12.0600 H   0  0  0  0  0  0  0  0  0  0  0  0
    4.8307   55.8856   10.4043 H   0  0  0  0  0  0  0  0  0  0  0  0
    4.2831   54.5421   11.4426 H   0  0  0  0  0  0  0  0  0  0  0  0
    2.8398   55.8165    9.4240 H   0  0  0  0  0  0  0  0  0  0  0  0
    1.9009   53.8851   11.4999 H   0  0  0  0  0  0  0  0  0  0  0  0
    2.6861   53.4798    9.9925 H   0  0  0  0  0  0  0  0  0  0  0  0
    1.1100   54.2341    9.9814 H   0  0  0  0  0  0  0  0  0  0  0  0
    2.3646   57.0073   11.9463 H   0  0  0  0  0  0  0  0  0  0  0  0
    1.0816   57.5651    9.2730 H   0  0  0  0  0  0  0  0  0  0  0  0
    2.5832   58.2560    9.8394 H   0  0  0  0  0  0  0  0  0  0  0  0
    1.0822   58.6507   10.6421 H   0  0  0  0  0  0  0  0  0  0  0  0
   -0.1242   55.8648   10.7199 H   0  0  0  0  0  0  0  0  0  0  0  0
   -0.0649   56.9902   12.0552 H   0  0  0  0  0  0  0  0  0  0  0  0
    0.5831   55.3783   12.2418 H   0  0  0  0  0  0  0  0  0  0  0  0
    5.0352   55.5389   14.1408 H   0  0  0  0  0  0  0  0  0  0  0  0
    6.0047   56.8508   13.4779 H   0  0  0  0  0  0  0  0  0  0  0  0
    6.3205   54.0660   13.0762 H   0  0  0  0  0  0  0  0  0  0  0  0
    5.8921   54.8171   11.5410 H   0  0  0  0  0  0  0  0  0  0  0  0
    7.9515   56.1602   13.1699 H   0  0  0  0  0  0  0  0  0  0  0  0
    8.3967   54.6601   12.3646 H   0  0  0  0  0  0  0  0  0  0  0  0
    7.2529   57.0971   11.0330 H   0  0  0  0  0  0  0  0  0  0  0  0
    8.9274   56.5498   10.9575 H   0  0  0  0  0  0  0  0  0  0  0  0
    6.5529   55.0529    9.9052 H   0  0  0  0  0  0  0  0  0  0  0  0
    8.2122   54.5082    9.8485 H   0  0  0  0  0  0  0  0  0  0  0  0
    7.7245   55.9195    8.9411 H   0  0  0  0  0  0  0  0  0  0  0  0
  1  8  1  0  0  0  0
  1 13  1  0  0  0  0
  1 14  1  0  0  0  0
  2  1  1  0  0  0  0
  2 15  1  0  0  0  0
  2 16  1  0  0  0  0
  3  4  1  0  0  0  0
  3  5  1  0  0  0  0
  3  2  1  0  0  0  0
  3 17  1  6  0  0  0
  4 18  1  0  0  0  0
  4 19  1  0  0  0  0
  4 20  1  0  0  0  0
  5  7  1  0  0  0  0
  5 21  1  0  0  0  0
  6  5  1  0  0  0  0
  6 22  1  0  0  0  0
  6 23  1  0  0  0  0
  6 24  1  0  0  0  0
  7 25  1  0  0  0  0
  7 26  1  0  0  0  0
  7 27  1  0  0  0  0
  8 28  1  0  0  0  0
  8 29  1  0  0  0  0
  9  8  1  0  0  0  0
  9 30  1  0  0  0  0
  9 31  1  0  0  0  0
 10  9  1  0  0  0  0
 10 32  1  0  0  0  0
 10 33  1  0  0  0  0
 11 10  1  0  0  0  0
 11 34  1  0  0  0  0
 11 35  1  0  0  0  0
 12 11  1  0  0  0  0
 12 36  1  0  0  0  0
 12 37  1  0  0  0  0
 12 38  1  0  0  0  0
M  END
$$$$
