smi_total_1_1_replica-1.pdbqt
 OpenBabel02022121403D

 33 34  0  0  0  0  0  0  0  0999 V2000
    6.8080   57.7580   11.9540 C   0  0  0  0  0  0  0  0  0  0  0  0
    5.4990   57.0870   11.6640 C   0  0  0  0  0  0  0  0  0  0  0  0
    4.2910   57.7060   12.0200 C   0  0  0  0  0  0  0  0  0  0  0  0
    3.0200   57.1160   11.8020 C   0  0  0  0  0  0  0  0  0  0  0  0
    3.0000   55.8230   11.2000 C   0  0  0  0  0  0  0  0  0  0  0  0
    1.7630   55.1730   10.9510 C   0  0  0  0  0  0  0  0  0  0  0  0
    0.5660   55.8020   11.3000 C   0  0  0  0  0  0  0  0  0  0  0  0
    0.5760   57.0600   11.8870 C   0  0  0  0  0  0  0  0  0  0  0  0
    1.6840   53.8070   10.3170 C   0  0  0  0  0  0  0  0  0  0  0  0
    4.2290   55.2080   10.8620 C   0  0  0  0  0  0  0  0  0  0  0  0
    1.7810   57.7400   12.1510 C   0  0  0  0  0  0  0  0  0  0  0  0
    5.4570   55.8240   11.0940 C   0  0  0  0  0  0  0  0  0  0  0  0
    1.6280   59.1170   12.8020 C   0  0  0  0  0  0  0  0  0  0  0  0
    1.5610   60.2650   11.7910 C   0  0  0  0  0  0  0  0  0  0  0  0
    0.5100   59.1790   13.8460 C   0  0  0  0  0  0  0  0  0  0  0  0
    7.6101   57.1378   11.6123 H   0  0  0  0  0  0  0  0  0  0  0  0
    6.9026   57.9148   13.0082 H   0  0  0  0  0  0  0  0  0  0  0  0
    6.8455   58.7003   11.4485 H   0  0  0  0  0  0  0  0  0  0  0  0
    4.3295   58.6374   12.4627 H   0  0  0  0  0  0  0  0  0  0  0  0
   -0.3329   55.3280   11.1202 H   0  0  0  0  0  0  0  0  0  0  0  0
   -0.3201   57.5073   12.1357 H   0  0  0  0  0  0  0  0  0  0  0  0
    2.6719   53.4538   10.1064 H   0  0  0  0  0  0  0  0  0  0  0  0
    1.1255   53.8682    9.4064 H   0  0  0  0  0  0  0  0  0  0  0  0
    1.1986   53.1297   10.9883 H   0  0  0  0  0  0  0  0  0  0  0  0
    4.2152   54.2714   10.4289 H   0  0  0  0  0  0  0  0  0  0  0  0
    6.3335   55.3410   10.8420 H   0  0  0  0  0  0  0  0  0  0  0  0
    2.5373   59.2644   13.3464 H   0  0  0  0  0  0  0  0  0  0  0  0
    0.6675   60.1761   11.2091 H   0  0  0  0  0  0  0  0  0  0  0  0
    2.4130   60.2217   11.1452 H   0  0  0  0  0  0  0  0  0  0  0  0
    1.5557   61.1994   12.3122 H   0  0  0  0  0  0  0  0  0  0  0  0
   -0.4353   59.0378   13.3651 H   0  0  0  0  0  0  0  0  0  0  0  0
    0.5255   60.1337   14.3289 H   0  0  0  0  0  0  0  0  0  0  0  0
    0.6585   58.4088   14.5738 H   0  0  0  0  0  0  0  0  0  0  0  0
  1 16  1  0  0  0  0
  1 17  1  0  0  0  0
  1 18  1  0  0  0  0
  2  1  1  0  0  0  0
  2  3  2  0  0  0  0
  3 19  1  0  0  0  0
  4  3  1  0  0  0  0
  4 11  2  0  0  0  0
  5  4  1  0  0  0  0
  6  5  2  0  0  0  0
  6  7  1  0  0  0  0
  7  8  2  0  0  0  0
  7 20  1  0  0  0  0
  8 11  1  0  0  0  0
  8 21  1  0  0  0  0
  9  6  1  0  0  0  0
  9 22  1  0  0  0  0
  9 23  1  0  0  0  0
  9 24  1  0  0  0  0
 10 12  2  0  0  0  0
 10  5  1  0  0  0  0
 10 25  1  0  0  0  0
 11 13  1  0  0  0  0
 12  2  1  0  0  0  0
 12 26  1  0  0  0  0
 13 15  1  0  0  0  0
 13 27  1  0  0  0  0
 14 13  1  0  0  0  0
 14 28  1  0  0  0  0
 14 29  1  0  0  0  0
 14 30  1  0  0  0  0
 15 31  1  0  0  0  0
 15 32  1  0  0  0  0
 15 33  1  0  0  0  0
M  END
$$$$
