smi_total_2_1_replica-1.pdbqt
 OpenBabel02022121403D

 37 37  0  0  0  0  0  0  0  0999 V2000
    6.0560   55.6590   11.7510 C   0  0  0  0  0  0  0  0  0  0  0  0
    6.9310   56.3780   10.7150 C   0  0  0  0  0  0  0  0  0  0  0  0
    8.1890   55.5700   10.3290 C   0  0  0  0  0  0  0  0  0  0  0  0
    8.0480   54.8120    8.9990 C   0  0  0  0  0  0  0  0  0  0  0  0
    9.4160   54.9040    8.3410 C   0  0  0  0  0  0  0  0  0  0  0  0
    9.8760   56.3020    8.7090 C   0  0  0  0  0  0  0  0  0  0  0  0
    9.4380   56.4560   10.1610 C   0  0  0  0  0  0  0  0  0  0  0  0
    4.6470   55.2480   11.2930 C   0  0  0  0  0  0  0  0  0  0  0  0
    3.5670   56.3290   11.1580 C   0  0  0  0  0  0  0  0  0  0  0  0
    2.2860   55.8960   10.4540 C   0  0  0  0  0  0  0  0  0  0  0  0
    1.2140   55.4380   11.4600 C   0  0  0  0  0  0  0  0  0  0  0  0
    0.7140   54.0160   11.1810 C   0  0  0  0  0  0  0  0  0  0  0  0
    1.4910   53.3190   10.0730 C   0  0  0  0  0  0  0  0  0  0  0  0
    5.9469   56.3107   12.5926 H   0  0  0  0  0  0  0  0  0  0  0  0
    6.5638   54.7411   11.9621 H   0  0  0  0  0  0  0  0  0  0  0  0
    6.3486   56.5456    9.8332 H   0  0  0  0  0  0  0  0  0  0  0  0
    7.2606   57.2964   11.1540 H   0  0  0  0  0  0  0  0  0  0  0  0
    8.2969   54.8873   11.1458 H   0  0  0  0  0  0  0  0  0  0  0  0
    7.7845   53.7901    9.1756 H   0  0  0  0  0  0  0  0  0  0  0  0
    7.2785   55.2267    8.3818 H   0  0  0  0  0  0  0  0  0  0  0  0
   10.0821   54.1640    8.7328 H   0  0  0  0  0  0  0  0  0  0  0  0
    9.3894   54.7322    7.2852 H   0  0  0  0  0  0  0  0  0  0  0  0
    9.4040   57.0347    8.0883 H   0  0  0  0  0  0  0  0  0  0  0  0
   10.9287   56.4405    8.5765 H   0  0  0  0  0  0  0  0  0  0  0  0
    9.1989   57.4778   10.3700 H   0  0  0  0  0  0  0  0  0  0  0  0
   10.2158   56.1657   10.8360 H   0  0  0  0  0  0  0  0  0  0  0  0
    4.4315   54.2615   11.0800 H   0  0  0  0  0  0  0  0  0  0  0  0
    3.6989   57.2864   11.5199 H   0  0  0  0  0  0  0  0  0  0  0  0
    2.5102   55.0856    9.7923 H   0  0  0  0  0  0  0  0  0  0  0  0
    1.9010   56.7352    9.9132 H   0  0  0  0  0  0  0  0  0  0  0  0
    0.3834   56.1103   11.4057 H   0  0  0  0  0  0  0  0  0  0  0  0
    1.6599   55.4401   12.4326 H   0  0  0  0  0  0  0  0  0  0  0  0
    0.8075   53.4396   12.0776 H   0  0  0  0  0  0  0  0  0  0  0  0
   -0.3037   54.0919   10.8593 H   0  0  0  0  0  0  0  0  0  0  0  0
    2.5171   53.2255   10.3614 H   0  0  0  0  0  0  0  0  0  0  0  0
    1.4243   53.8951    9.1738 H   0  0  0  0  0  0  0  0  0  0  0  0
    1.0777   52.3465    9.9049 H   0  0  0  0  0  0  0  0  0  0  0  0
  1 14  1  0  0  0  0
  1 15  1  0  0  0  0
  2  1  1  0  0  0  0
  2 16  1  0  0  0  0
  2 17  1  0  0  0  0
  3  2  1  0  0  0  0
  3 18  1  0  0  0  0
  4  3  1  0  0  0  0
  4 19  1  0  0  0  0
  4 20  1  0  0  0  0
  5  6  1  0  0  0  0
  5  4  1  0  0  0  0
  5 21  1  0  0  0  0
  5 22  1  0  0  0  0
  6  7  1  0  0  0  0
  6 23  1  0  0  0  0
  6 24  1  0  0  0  0
  7  3  1  0  0  0  0
  7 25  1  0  0  0  0
  7 26  1  0  0  0  0
  8  1  1  0  0  0  0
  8 27  1  0  0  0  0
  9  8  2  0  0  0  0
  9 28  1  0  0  0  0
 10  9  1  0  0  0  0
 10 11  1  0  0  0  0
 10 29  1  0  0  0  0
 10 30  1  0  0  0  0
 11 31  1  0  0  0  0
 11 32  1  0  0  0  0
 12 11  1  0  0  0  0
 12 33  1  0  0  0  0
 12 34  1  0  0  0  0
 13 12  1  0  0  0  0
 13 35  1  0  0  0  0
 13 36  1  0  0  0  0
 13 37  1  0  0  0  0
M  END
$$$$
