smi_total_2_1_replica-1.pdbqt
 OpenBabel02022121403D

 37 37  0  0  0  0  0  0  0  0999 V2000
    4.4640   55.9180   11.7380 C   0  0  0  0  0  0  0  0  0  0  0  0
    3.0790   56.5710   11.6300 C   0  0  0  0  0  0  0  0  0  0  0  0
    2.1240   55.7980   10.6950 C   0  0  0  0  0  0  0  0  0  0  0  0
    2.6830   54.4450   10.2280 C   0  0  0  0  0  0  0  0  0  0  0  0
    1.4840   53.5080   10.1940 C   0  0  0  0  0  0  0  0  0  0  0  0
    0.6750   53.9500   11.3980 C   0  0  0  0  0  0  0  0  0  0  0  0
    0.7730   55.4710   11.3610 C   0  0  0  0  0  0  0  0  0  0  0  0
    5.6730   56.8680   11.7470 C   0  0  0  0  0  0  0  0  0  0  0  0
    7.0680   56.2970   11.4590 C   0  0  0  0  0  0  0  0  0  0  0  0
    7.2450   55.6460   10.0920 C   0  0  0  0  0  0  0  0  0  0  0  0
    8.7000   55.7480    9.6000 C   0  0  0  0  0  0  0  0  0  0  0  0
    8.9990   54.7870    8.4450 C   0  0  0  0  0  0  0  0  0  0  0  0
   10.4830   54.6930    8.1190 C   0  0  0  0  0  0  0  0  0  0  0  0
    4.5778   54.8943   11.8013 H   0  0  0  0  0  0  0  0  0  0  0  0
    2.6431   56.6114   12.6063 H   0  0  0  0  0  0  0  0  0  0  0  0
    3.2150   57.5479   11.2152 H   0  0  0  0  0  0  0  0  0  0  0  0
    2.0047   56.4657    9.8674 H   0  0  0  0  0  0  0  0  0  0  0  0
    3.1171   54.5344    9.2541 H   0  0  0  0  0  0  0  0  0  0  0  0
    3.4535   54.0851   10.8774 H   0  0  0  0  0  0  0  0  0  0  0  0
    1.7902   52.4872   10.2896 H   0  0  0  0  0  0  0  0  0  0  0  0
    0.9362   53.5555    9.2761 H   0  0  0  0  0  0  0  0  0  0  0  0
    1.0947   53.5626   12.3028 H   0  0  0  0  0  0  0  0  0  0  0  0
   -0.3354   53.5989   11.3701 H   0  0  0  0  0  0  0  0  0  0  0  0
   -0.0321   55.8809   10.7877 H   0  0  0  0  0  0  0  0  0  0  0  0
    0.7108   55.8900   12.3436 H   0  0  0  0  0  0  0  0  0  0  0  0
    5.5483   57.8734   11.9436 H   0  0  0  0  0  0  0  0  0  0  0  0
    7.7736   57.0977   11.5359 H   0  0  0  0  0  0  0  0  0  0  0  0
    7.2182   55.5169   12.1758 H   0  0  0  0  0  0  0  0  0  0  0  0
    6.9735   54.6134   10.1614 H   0  0  0  0  0  0  0  0  0  0  0  0
    6.6185   56.1597    9.3930 H   0  0  0  0  0  0  0  0  0  0  0  0
    8.8804   56.7492    9.2685 H   0  0  0  0  0  0  0  0  0  0  0  0
    9.3381   55.4822   10.4167 H   0  0  0  0  0  0  0  0  0  0  0  0
    8.6461   53.8128    8.7119 H   0  0  0  0  0  0  0  0  0  0  0  0
    8.5036   55.1669    7.5760 H   0  0  0  0  0  0  0  0  0  0  0  0
   11.0117   54.3152    8.9691 H   0  0  0  0  0  0  0  0  0  0  0  0
   10.8557   55.6646    7.8701 H   0  0  0  0  0  0  0  0  0  0  0  0
   10.6247   54.0331    7.2887 H   0  0  0  0  0  0  0  0  0  0  0  0
  1  8  2  0  0  0  0
  1 14  1  0  0  0  0
  2  1  1  0  0  0  0
  2 15  1  0  0  0  0
  2 16  1  0  0  0  0
  3  7  1  0  0  0  0
  3  2  1  0  0  0  0
  3 17  1  0  0  0  0
  4  3  1  0  0  0  0
  4 18  1  0  0  0  0
  4 19  1  0  0  0  0
  5  4  1  0  0  0  0
  5  6  1  0  0  0  0
  5 20  1  0  0  0  0
  5 21  1  0  0  0  0
  6 22  1  0  0  0  0
  6 23  1  0  0  0  0
  7  6  1  0  0  0  0
  7 24  1  0  0  0  0
  7 25  1  0  0  0  0
  8 26  1  0  0  0  0
  9  8  1  0  0  0  0
  9 27  1  0  0  0  0
  9 28  1  0  0  0  0
 10  9  1  0  0  0  0
 10 29  1  0  0  0  0
 10 30  1  0  0  0  0
 11 10  1  0  0  0  0
 11 31  1  0  0  0  0
 11 32  1  0  0  0  0
 12 11  1  0  0  0  0
 12 33  1  0  0  0  0
 12 34  1  0  0  0  0
 13 12  1  0  0  0  0
 13 35  1  0  0  0  0
 13 36  1  0  0  0  0
 13 37  1  0  0  0  0
M  END
$$$$
