smi_total_1_1_replica-1.pdbqt
 OpenBabel02022121403D

 33 34  0  0  0  0  0  0  0  0999 V2000
    8.1030   55.1190    9.4490 C   0  0  0  0  0  0  0  0  0  0  0  0
    7.4210   55.6020   10.6930 C   0  0  0  0  0  0  0  0  0  0  0  0
    6.0320   55.8040   10.7070 C   0  0  0  0  0  0  0  0  0  0  0  0
    5.3270   56.2860   11.8390 C   0  0  0  0  0  0  0  0  0  0  0  0
    6.0960   56.5830   13.0040 C   0  0  0  0  0  0  0  0  0  0  0  0
    5.4560   57.0680   14.1740 C   0  0  0  0  0  0  0  0  0  0  0  0
    4.0720   57.2570   14.1810 C   0  0  0  0  0  0  0  0  0  0  0  0
    3.3170   56.9710   13.0520 C   0  0  0  0  0  0  0  0  0  0  0  0
    6.2190   57.3980   15.4320 C   0  0  0  0  0  0  0  0  0  0  0  0
    7.4960   56.3880   12.9650 C   0  0  0  0  0  0  0  0  0  0  0  0
    3.9110   56.4880   11.8710 C   0  0  0  0  0  0  0  0  0  0  0  0
    8.1500   55.9110   11.8310 C   0  0  0  0  0  0  0  0  0  0  0  0
    2.9470   56.2210   10.7120 C   0  0  0  0  0  0  0  0  0  0  0  0
    2.4980   54.7600   10.6180 C   0  0  0  0  0  0  0  0  0  0  0  0
    1.7780   57.2080   10.6500 C   0  0  0  0  0  0  0  0  0  0  0  0
    7.3719   54.9367    8.6893 H   0  0  0  0  0  0  0  0  0  0  0  0
    8.6310   54.2127    9.6607 H   0  0  0  0  0  0  0  0  0  0  0  0
    8.7930   55.8627    9.1089 H   0  0  0  0  0  0  0  0  0  0  0  0
    5.4971   55.5911    9.8505 H   0  0  0  0  0  0  0  0  0  0  0  0
    3.6076   57.6118   15.0316 H   0  0  0  0  0  0  0  0  0  0  0  0
    2.2956   57.1160   13.0792 H   0  0  0  0  0  0  0  0  0  0  0  0
    7.2602   57.2049   15.2787 H   0  0  0  0  0  0  0  0  0  0  0  0
    5.8586   56.7922   16.2370 H   0  0  0  0  0  0  0  0  0  0  0  0
    6.0796   58.4311   15.6730 H   0  0  0  0  0  0  0  0  0  0  0  0
    8.0528   56.6067   13.8059 H   0  0  0  0  0  0  0  0  0  0  0  0
    9.1746   55.7880   11.8382 H   0  0  0  0  0  0  0  0  0  0  0  0
    3.5227   56.4031    9.8287 H   0  0  0  0  0  0  0  0  0  0  0  0
    1.9126   54.5107   11.4782 H   0  0  0  0  0  0  0  0  0  0  0  0
    3.3579   54.1246   10.5755 H   0  0  0  0  0  0  0  0  0  0  0  0
    1.9098   54.6238    9.7346 H   0  0  0  0  0  0  0  0  0  0  0  0
    1.1563   57.0791   11.5113 H   0  0  0  0  0  0  0  0  0  0  0  0
    1.2041   57.0261    9.7654 H   0  0  0  0  0  0  0  0  0  0  0  0
    2.1567   58.2086   10.6300 H   0  0  0  0  0  0  0  0  0  0  0  0
  1  2  1  0  0  0  0
  1 16  1  0  0  0  0
  1 17  1  0  0  0  0
  1 18  1  0  0  0  0
  2  3  2  0  0  0  0
  2 12  1  0  0  0  0
  3  4  1  0  0  0  0
  3 19  1  0  0  0  0
  4 11  2  0  0  0  0
  4  5  1  0  0  0  0
  5  6  2  0  0  0  0
  6  7  1  0  0  0  0
  6  9  1  0  0  0  0
  7 20  1  0  0  0  0
  8  7  2  0  0  0  0
  8 21  1  0  0  0  0
  9 22  1  0  0  0  0
  9 23  1  0  0  0  0
  9 24  1  0  0  0  0
 10  5  1  0  0  0  0
 10 25  1  0  0  0  0
 11  8  1  0  0  0  0
 12 10  2  0  0  0  0
 12 26  1  0  0  0  0
 13 11  1  0  0  0  0
 13 27  1  0  0  0  0
 14 13  1  0  0  0  0
 14 28  1  0  0  0  0
 14 29  1  0  0  0  0
 14 30  1  0  0  0  0
 15 13  1  0  0  0  0
 15 31  1  0  0  0  0
 15 32  1  0  0  0  0
 15 33  1  0  0  0  0
M  END
$$$$
