smi_total_5_2_replica-1.pdbqt
 OpenBabel02022121403D

 37 36  0  0  1  0  0  0  0  0999 V2000
    4.1440   57.9810   12.8480 C   0  0  2  0  0  0  0  0  0  0  0  0
    4.4040   56.9230   13.9350 C   0  0  0  0  0  0  0  0  0  0  0  0
    3.4320   57.4450   11.5790 C   0  0  0  0  0  0  0  0  0  0  0  0
    3.1680   55.9830   11.3830 C   0  0  0  0  0  0  0  0  0  0  0  0
    2.3970   55.4160   10.4300 C   0  0  0  0  0  0  0  0  0  0  0  0
    2.0870   53.9650   10.2890 C   0  0  0  0  0  0  0  0  0  0  0  0
    0.8240   53.6290   11.0580 C   0  0  0  0  0  0  0  0  0  0  0  0
    5.5210   58.5670   12.4640 C   0  0  0  0  0  0  0  0  0  0  0  0
    6.7020   57.6120   12.6570 C   0  0  0  0  0  0  0  0  0  0  0  0
    7.1840   57.0020   11.3710 C   0  0  0  0  0  0  0  0  0  0  0  0
    7.1120   55.7140   10.9850 C   0  0  0  0  0  0  0  0  0  0  0  0
    7.6480   55.2900    9.6450 C   0  0  0  0  0  0  0  0  0  0  0  0
    6.5290   54.5820   11.7870 C   0  0  0  0  0  0  0  0  0  0  0  0
    3.4730   58.7109   13.2505 H   0  0  0  0  0  0  0  0  0  0  0  0
    5.0740   56.1797   13.5562 H   0  0  0  0  0  0  0  0  0  0  0  0
    3.4792   56.4616   14.2121 H   0  0  0  0  0  0  0  0  0  0  0  0
    4.8395   57.3921   14.7924 H   0  0  0  0  0  0  0  0  0  0  0  0
    2.4794   57.9307   11.5405 H   0  0  0  0  0  0  0  0  0  0  0  0
    4.1477   57.6525   10.8111 H   0  0  0  0  0  0  0  0  0  0  0  0
    3.6248   55.3397   12.0483 H   0  0  0  0  0  0  0  0  0  0  0  0
    1.9813   56.0503    9.7301 H   0  0  0  0  0  0  0  0  0  0  0  0
    2.9016   53.3891   10.6760 H   0  0  0  0  0  0  0  0  0  0  0  0
    1.9405   53.7354    9.2542 H   0  0  0  0  0  0  0  0  0  0  0  0
    0.9658   53.8570   12.0938 H   0  0  0  0  0  0  0  0  0  0  0  0
    0.6064   52.5871   10.9487 H   0  0  0  0  0  0  0  0  0  0  0  0
    0.0086   54.2058   10.6742 H   0  0  0  0  0  0  0  0  0  0  0  0
    5.4865   58.8495   11.4325 H   0  0  0  0  0  0  0  0  0  0  0  0
    5.6910   59.3929   13.1227 H   0  0  0  0  0  0  0  0  0  0  0  0
    7.5103   58.1554   13.1000 H   0  0  0  0  0  0  0  0  0  0  0  0
    6.3660   56.8119   13.2830 H   0  0  0  0  0  0  0  0  0  0  0  0
    7.6249   57.6508   10.7004 H   0  0  0  0  0  0  0  0  0  0  0  0
    8.0444   56.1422    9.1336 H   0  0  0  0  0  0  0  0  0  0  0  0
    6.8582   54.8611    9.0644 H   0  0  0  0  0  0  0  0  0  0  0  0
    8.4227   54.5651    9.7839 H   0  0  0  0  0  0  0  0  0  0  0  0
    6.6079   53.6722   11.2294 H   0  0  0  0  0  0  0  0  0  0  0  0
    5.4991   54.7851   11.9943 H   0  0  0  0  0  0  0  0  0  0  0  0
    7.0655   54.4838   12.7076 H   0  0  0  0  0  0  0  0  0  0  0  0
  1  2  1  0  0  0  0
  1 14  1  1  0  0  0
  2 15  1  0  0  0  0
  2 16  1  0  0  0  0
  2 17  1  0  0  0  0
  3  1  1  0  0  0  0
  3 18  1  0  0  0  0
  3 19  1  0  0  0  0
  4  3  1  0  0  0  0
  4 20  1  0  0  0  0
  5  4  2  0  0  0  0
  5 21  1  0  0  0  0
  6  5  1  0  0  0  0
  6  7  1  0  0  0  0
  6 22  1  0  0  0  0
  6 23  1  0  0  0  0
  7 24  1  0  0  0  0
  7 25  1  0  0  0  0
  7 26  1  0  0  0  0
  8  9  1  0  0  0  0
  8  1  1  0  0  0  0
  8 27  1  0  0  0  0
  8 28  1  0  0  0  0
  9 29  1  0  0  0  0
  9 30  1  0  0  0  0
 10  9  1  0  0  0  0
 10 31  1  0  0  0  0
 11 10  2  0  0  0  0
 11 13  1  0  0  0  0
 12 11  1  0  0  0  0
 12 32  1  0  0  0  0
 12 33  1  0  0  0  0
 12 34  1  0  0  0  0
 13 35  1  0  0  0  0
 13 36  1  0  0  0  0
 13 37  1  0  0  0  0
M  END
$$$$
