smi_total_1_1_replica-1.pdbqt
 OpenBabel02022121403D

 33 34  0  0  0  0  0  0  0  0999 V2000
    8.1160   56.3690   13.1010 C   0  0  0  0  0  0  0  0  0  0  0  0
    6.7500   56.2150   12.5030 C   0  0  0  0  0  0  0  0  0  0  0  0
    5.8840   57.3160   12.4190 C   0  0  0  0  0  0  0  0  0  0  0  0
    4.5700   57.2350   11.8930 C   0  0  0  0  0  0  0  0  0  0  0  0
    4.1290   55.9540   11.4450 C   0  0  0  0  0  0  0  0  0  0  0  0
    2.8250   55.8000   10.9060 C   0  0  0  0  0  0  0  0  0  0  0  0
    1.9750   56.9040   10.8180 C   0  0  0  0  0  0  0  0  0  0  0  0
    2.3960   58.1540   11.2520 C   0  0  0  0  0  0  0  0  0  0  0  0
    2.3070   54.4700   10.4180 C   0  0  0  0  0  0  0  0  0  0  0  0
    5.0100   54.8530   11.5530 C   0  0  0  0  0  0  0  0  0  0  0  0
    3.6810   58.3520   11.7930 C   0  0  0  0  0  0  0  0  0  0  0  0
    6.2950   54.9770   12.0760 C   0  0  0  0  0  0  0  0  0  0  0  0
    3.9970   59.7850   12.2270 C   0  0  0  0  0  0  0  0  0  0  0  0
    3.6540   60.8330   11.1650 C   0  0  0  0  0  0  0  0  0  0  0  0
    3.4490   60.1400   13.6110 C   0  0  0  0  0  0  0  0  0  0  0  0
    8.6239   55.4275   13.0774 H   0  0  0  0  0  0  0  0  0  0  0  0
    8.0264   56.7007   14.1143 H   0  0  0  0  0  0  0  0  0  0  0  0
    8.6727   57.0888   12.5381 H   0  0  0  0  0  0  0  0  0  0  0  0
    6.2207   58.2310   12.7573 H   0  0  0  0  0  0  0  0  0  0  0  0
    1.0266   56.7902   10.4274 H   0  0  0  0  0  0  0  0  0  0  0  0
    1.7520   58.9569   11.1763 H   0  0  0  0  0  0  0  0  0  0  0  0
    1.3071   54.5879   10.0556 H   0  0  0  0  0  0  0  0  0  0  0  0
    2.3135   53.7670   11.2246 H   0  0  0  0  0  0  0  0  0  0  0  0
    2.9329   54.1117    9.6276 H   0  0  0  0  0  0  0  0  0  0  0  0
    4.6897   53.9255   11.2332 H   0  0  0  0  0  0  0  0  0  0  0  0
    6.9071   54.1490   12.1455 H   0  0  0  0  0  0  0  0  0  0  0  0
    5.0621   59.8119   12.3255 H   0  0  0  0  0  0  0  0  0  0  0  0
    2.5945   60.8574   11.0171 H   0  0  0  0  0  0  0  0  0  0  0  0
    4.1368   60.5792   10.2445 H   0  0  0  0  0  0  0  0  0  0  0  0
    3.9909   61.7948   11.4911 H   0  0  0  0  0  0  0  0  0  0  0  0
    2.3794   60.1315   13.5840 H   0  0  0  0  0  0  0  0  0  0  0  0
    3.7910   61.1145   13.8908 H   0  0  0  0  0  0  0  0  0  0  0  0
    3.7935   59.4222   14.3259 H   0  0  0  0  0  0  0  0  0  0  0  0
  1 16  1  0  0  0  0
  1 17  1  0  0  0  0
  1 18  1  0  0  0  0
  2  1  1  0  0  0  0
  3  2  1  0  0  0  0
  3 19  1  0  0  0  0
  4  3  2  0  0  0  0
  5 10  2  0  0  0  0
  5  4  1  0  0  0  0
  6  5  1  0  0  0  0
  7  6  2  0  0  0  0
  7  8  1  0  0  0  0
  7 20  1  0  0  0  0
  8 11  2  0  0  0  0
  8 21  1  0  0  0  0
  9  6  1  0  0  0  0
  9 22  1  0  0  0  0
  9 23  1  0  0  0  0
  9 24  1  0  0  0  0
 10 12  1  0  0  0  0
 10 25  1  0  0  0  0
 11  4  1  0  0  0  0
 11 13  1  0  0  0  0
 12  2  2  0  0  0  0
 12 26  1  0  0  0  0
 13 15  1  0  0  0  0
 13 27  1  0  0  0  0
 14 13  1  0  0  0  0
 14 28  1  0  0  0  0
 14 29  1  0  0  0  0
 14 30  1  0  0  0  0
 15 31  1  0  0  0  0
 15 32  1  0  0  0  0
 15 33  1  0  0  0  0
M  END
$$$$
