smi_total_5_2_replica-1.pdbqt
 OpenBabel02022121403D

 37 36  0  0  1  0  0  0  0  0999 V2000
    5.8430   54.9720   12.5840 C   0  0  2  0  0  0  0  0  0  0  0  0
    5.5330   55.9030   13.7690 C   0  0  0  0  0  0  0  0  0  0  0  0
    7.3100   54.4750   12.5150 C   0  0  0  0  0  0  0  0  0  0  0  0
    7.8520   53.4830   13.4990 C   0  0  0  0  0  0  0  0  0  0  0  0
    8.6310   52.4120   13.2290 C   0  0  0  0  0  0  0  0  0  0  0  0
    9.1050   51.3940   14.2080 C   0  0  0  0  0  0  0  0  0  0  0  0
    8.1290   50.2350   14.2640 C   0  0  0  0  0  0  0  0  0  0  0  0
    5.5010   55.7630   11.3010 C   0  0  0  0  0  0  0  0  0  0  0  0
    4.0100   56.0550   11.1060 C   0  0  0  0  0  0  0  0  0  0  0  0
    3.2320   54.8570   10.6390 C   0  0  0  0  0  0  0  0  0  0  0  0
    1.9060   54.6390   10.7380 C   0  0  0  0  0  0  0  0  0  0  0  0
    1.3030   53.3690   10.2020 C   0  0  0  0  0  0  0  0  0  0  0  0
    0.9010   55.5700   11.3600 C   0  0  0  0  0  0  0  0  0  0  0  0
    5.2588   54.0832   12.7005 H   0  0  0  0  0  0  0  0  0  0  0  0
    6.1062   56.8017   13.6759 H   0  0  0  0  0  0  0  0  0  0  0  0
    5.7868   55.4113   14.6848 H   0  0  0  0  0  0  0  0  0  0  0  0
    4.4904   56.1435   13.7704 H   0  0  0  0  0  0  0  0  0  0  0  0
    7.9268   55.3457   12.5945 H   0  0  0  0  0  0  0  0  0  0  0  0
    7.3195   53.9184   11.6012 H   0  0  0  0  0  0  0  0  0  0  0  0
    7.6037   53.6339   14.4893 H   0  0  0  0  0  0  0  0  0  0  0  0
    8.9265   52.2871   12.2481 H   0  0  0  0  0  0  0  0  0  0  0  0
    9.1794   51.8418   15.1769 H   0  0  0  0  0  0  0  0  0  0  0  0
   10.0639   51.0314   13.9014 H   0  0  0  0  0  0  0  0  0  0  0  0
    7.1681   50.5924   14.5703 H   0  0  0  0  0  0  0  0  0  0  0  0
    8.4793   49.5074   14.9660 H   0  0  0  0  0  0  0  0  0  0  0  0
    8.0509   49.7873   13.2953 H   0  0  0  0  0  0  0  0  0  0  0  0
    6.0214   56.6972   11.3370 H   0  0  0  0  0  0  0  0  0  0  0  0
    5.7978   55.1465   10.4784 H   0  0  0  0  0  0  0  0  0  0  0  0
    3.6022   56.3835   12.0391 H   0  0  0  0  0  0  0  0  0  0  0  0
    3.9278   56.8050   10.3473 H   0  0  0  0  0  0  0  0  0  0  0  0
    3.7809   54.1092   10.1868 H   0  0  0  0  0  0  0  0  0  0  0  0
    2.0734   52.7599    9.7772 H   0  0  0  0  0  0  0  0  0  0  0  0
    0.5808   53.6071    9.4493 H   0  0  0  0  0  0  0  0  0  0  0  0
    0.8260   52.8368   10.9983 H   0  0  0  0  0  0  0  0  0  0  0  0
   -0.0748   55.1357   11.2962 H   0  0  0  0  0  0  0  0  0  0  0  0
    0.9102   56.5045   10.8389 H   0  0  0  0  0  0  0  0  0  0  0  0
    1.1528   55.7319   12.3873 H   0  0  0  0  0  0  0  0  0  0  0  0
  1  2  1  0  0  0  0
  1 14  1  1  0  0  0
  2 15  1  0  0  0  0
  2 16  1  0  0  0  0
  2 17  1  0  0  0  0
  3  1  1  0  0  0  0
  3  4  1  0  0  0  0
  3 18  1  0  0  0  0
  3 19  1  0  0  0  0
  4 20  1  0  0  0  0
  5  4  2  0  0  0  0
  5  6  1  0  0  0  0
  5 21  1  0  0  0  0
  6  7  1  0  0  0  0
  6 22  1  0  0  0  0
  6 23  1  0  0  0  0
  7 24  1  0  0  0  0
  7 25  1  0  0  0  0
  7 26  1  0  0  0  0
  8  1  1  0  0  0  0
  8 27  1  0  0  0  0
  8 28  1  0  0  0  0
  9  8  1  0  0  0  0
  9 29  1  0  0  0  0
  9 30  1  0  0  0  0
 10 11  2  0  0  0  0
 10  9  1  0  0  0  0
 10 31  1  0  0  0  0
 11 13  1  0  0  0  0
 12 11  1  0  0  0  0
 12 32  1  0  0  0  0
 12 33  1  0  0  0  0
 12 34  1  0  0  0  0
 13 35  1  0  0  0  0
 13 36  1  0  0  0  0
 13 37  1  0  0  0  0
M  END
$$$$
